  - ethyl-2-methylpropanoate -  
  ChemoJun12080615183D 1   1.00000     0.00000     0
  This molfile was created by ChemoJun053 at 2006/12/08 15:18:45
 20 19  0  0  0  0  0  0  0  0  1 V2000
   -3.1086   -0.7561   -0.6559 C   0  0  0  0  0  0  0  0  0  0  0  0
   -1.8394    0.1362   -0.5992 C   0  0  0  0  0  0  0  0  0  0  0  0
   -0.5325   -0.7031   -0.5847 C   0  0  0  0  0  0  0  0  0  0  0  0
    0.7098   -0.0157   -0.6350 O   0  0  0  0  0  0  0  0  0  0  0  0
   -0.5883   -1.9165   -0.6102 O   0  0  0  0  0  0  0  0  0  0  0  0
    1.8771   -0.8285   -0.6306 C   0  0  0  0  0  0  0  0  0  0  0  0
   -1.8822    1.0660    0.6428 C   0  0  0  0  0  0  0  0  0  0  0  0
    3.1430    0.0669   -0.6298 C   0  0  0  0  0  0  0  0  0  0  0  0
   -4.0318   -0.1176   -0.6837 H   0  0  0  0  0  0  0  0  0  0  0  0
   -3.1617   -1.4196    0.2484 H   0  0  0  0  0  0  0  0  0  0  0  0
   -3.0967   -1.3972   -1.5780 H   0  0  0  0  0  0  0  0  0  0  0  0
   -1.8147    0.7762   -1.5266 H   0  0  0  0  0  0  0  0  0  0  0  0
    1.8956   -1.4851   -1.5449 H   0  0  0  0  0  0  0  0  0  0  0  0
    1.8951   -1.4836    0.2849 H   0  0  0  0  0  0  0  0  0  0  0  0
   -1.0330    1.8003    0.6141 H   0  0  0  0  0  0  0  0  0  0  0  0
   -1.8033    0.4594    1.5843 H   0  0  0  0  0  0  0  0  0  0  0  0
   -2.8454    1.6427    0.6651 H   0  0  0  0  0  0  0  0  0  0  0  0
    4.0691   -0.5688   -0.6287 H   0  0  0  0  0  0  0  0  0  0  0  0
    3.1530    0.7211    0.2831 H   0  0  0  0  0  0  0  0  0  0  0  0
    3.1543    0.7207   -1.5429 H   0  0  0  0  0  0  0  0  0  0  0  0
  1  2  1  0  0  0  0
  1  9  1  0  0  0  0
  1 10  1  1  0  0  0
  1 11  1  6  0  0  0
  2  3  1  0  0  0  0
  2  7  1  1  0  0  0
  2 12  1  6  0  0  0
  3  4  1  0  0  0  0
  3  5  2  0  0  0  0
  4  6  1  0  0  0  0
  6  8  1  0  0  0  0
  6 13  1  6  0  0  0
  6 14  1  1  0  0  0
  7 15  1  0  0  0  0
  7 16  1  1  0  0  0
  7 17  1  0  0  0  0
  8 18  1  0  0  0  0
  8 19  1  1  0  0  0
  8 20  1  6  0  0  0
M  END
