  - methyl-acetate -  
  ChemoJun12080615183D 1   1.00000     0.00000     0
  This molfile was created by ChemoJun053 at 2006/12/08 15:18:45
 11 10  0  0  0  0  0  0  0  0  1 V2000
   -1.8898   -0.6891    0.0042 C   0  0  0  0  0  0  0  0  0  0  0  0
   -0.5933    0.1536   -0.0075 C   0  0  0  0  0  0  0  0  0  0  0  0
    0.6546   -0.5247   -0.0094 O   0  0  0  0  0  0  0  0  0  0  0  0
   -0.6713    1.3661   -0.0126 O   0  0  0  0  0  0  0  0  0  0  0  0
    1.8099    0.3032   -0.0095 C   0  0  0  0  0  0  0  0  0  0  0  0
   -2.7950   -0.0257    0.0022 H   0  0  0  0  0  0  0  0  0  0  0  0
   -1.9096   -1.3313    0.9246 H   0  0  0  0  0  0  0  0  0  0  0  0
   -1.9167   -1.3463   -0.9053 H   0  0  0  0  0  0  0  0  0  0  0  0
    2.7302   -0.3415   -0.0095 H   0  0  0  0  0  0  0  0  0  0  0  0
    1.8383    0.9525    0.9070 H   0  0  0  0  0  0  0  0  0  0  0  0
    1.8383    0.9523   -0.9262 H   0  0  0  0  0  0  0  0  0  0  0  0
  1  2  1  0  0  0  0
  1  6  1  0  0  0  0
  1  7  1  1  0  0  0
  1  8  1  6  0  0  0
  2  3  1  0  0  0  0
  2  4  2  0  0  0  0
  3  5  1  0  0  0  0
  5  9  1  0  0  0  0
  5 10  1  1  0  0  0
  5 11  1  6  0  0  0
M  END
