  - methyl-butyrate -  
  ChemoJun12080615183D 1   1.00000     0.00000     0
  This molfile was created by ChemoJun053 at 2006/12/08 15:18:45
 17 16  0  0  0  0  0  0  0  0  1 V2000
   -1.8774   -0.3295   -0.0001 C   0  0  0  0  0  0  0  0  0  0  0  0
   -0.6200    0.5789   -0.0007 C   0  0  0  0  0  0  0  0  0  0  0  0
    0.7106   -0.2149   -0.0023 C   0  0  0  0  0  0  0  0  0  0  0  0
    1.9259    0.5211   -0.0009 O   0  0  0  0  0  0  0  0  0  0  0  0
    0.6985   -1.4298   -0.0101 O   0  0  0  0  0  0  0  0  0  0  0  0
    3.1205   -0.2487    0.0006 C   0  0  0  0  0  0  0  0  0  0  0  0
   -3.1826    0.5067    0.0006 C   0  0  0  0  0  0  0  0  0  0  0  0
   -1.8635   -0.9894    0.9110 H   0  0  0  0  0  0  0  0  0  0  0  0
   -1.8646   -0.9893   -0.9114 H   0  0  0  0  0  0  0  0  0  0  0  0
   -0.6336    1.2373    0.9104 H   0  0  0  0  0  0  0  0  0  0  0  0
   -0.6352    1.2384   -0.9110 H   0  0  0  0  0  0  0  0  0  0  0  0
    4.0070    0.4420    0.0029 H   0  0  0  0  0  0  0  0  0  0  0  0
    3.1836   -0.8948   -0.9166 H   0  0  0  0  0  0  0  0  0  0  0  0
    3.1801   -0.8966    0.9168 H   0  0  0  0  0  0  0  0  0  0  0  0
   -4.0772   -0.1729    0.0008 H   0  0  0  0  0  0  0  0  0  0  0  0
   -3.2280    1.1587   -0.9125 H   0  0  0  0  0  0  0  0  0  0  0  0
   -3.2273    1.1584    0.9139 H   0  0  0  0  0  0  0  0  0  0  0  0
  1  2  1  0  0  0  0
  1  7  1  0  0  0  0
  1  8  1  1  0  0  0
  1  9  1  6  0  0  0
  2  3  1  0  0  0  0
  2 10  1  1  0  0  0
  2 11  1  6  0  0  0
  3  4  1  0  0  0  0
  3  5  2  0  0  0  0
  4  6  1  0  0  0  0
  6 12  1  0  0  0  0
  6 13  1  6  0  0  0
  6 14  1  1  0  0  0
  7 15  1  0  0  0  0
  7 16  1  6  0  0  0
  7 17  1  1  0  0  0
M  END
