  - maleic-acid -  
  ChemoJun12080615173D 1   1.00000     0.00000     0
  This molfile was created by ChemoJun053 at 2006/12/08 15:17:59
 12 11  0  0  0  0  0  0  0  0  1 V2000
   -1.5376    0.9649    0.2418 C   0  0  0  0  0  0  0  0  0  0  0  0
   -0.4681    1.5823   -0.2418 C   0  0  0  0  0  0  0  0  0  0  0  0
    0.9803    0.7076   -0.5613 C   0  0  0  0  0  0  0  0  0  0  0  0
   -1.5042   -0.7268    0.5613 C   0  0  0  0  0  0  0  0  0  0  0  0
    2.1428    0.9655    0.1917 O   0  0  0  0  0  0  0  0  0  0  0  0
    1.0526   -0.0233   -1.5262 O   0  0  0  0  0  0  0  0  0  0  0  0
   -2.3088   -1.6047   -0.1917 O   0  0  0  0  0  0  0  0  0  0  0  0
   -0.9074   -1.1549    1.5262 O   0  0  0  0  0  0  0  0  0  0  0  0
   -2.4810    1.5395    0.4457 H   0  0  0  0  0  0  0  0  0  0  0  0
   -0.4941    2.6867   -0.4457 H   0  0  0  0  0  0  0  0  0  0  0  0
    2.8940    0.4568   -0.2077 H   0  0  0  0  0  0  0  0  0  0  0  0
   -2.2439   -2.5096    0.2077 H   0  0  0  0  0  0  0  0  0  0  0  0
  1  2  2  0  0  0  0
  1  4  1  0  0  0  0
  1  9  1  0  0  0  0
  2  3  1  0  0  0  0
  2 10  1  0  0  0  0
  3  5  1  1  0  0  0
  3  6  2  0  0  0  0
  4  7  1  6  0  0  0
  4  8  2  0  0  0  0
  5 11  1  0  0  0  0
  7 12  1  0  0  0  0
M  END
