  - meso-tartaric-acid -  
  ChemoJun12080615173D 1   1.00000     0.00000     0
  This molfile was created by ChemoJun053 at 2006/12/08 15:17:59
 16 15  0  0  0  0  0  0  0  0  1 V2000
   -0.7696   -0.0380   -0.0455 C   0  0  0  0  0  0  0  0  0  0  0  0
    0.7811    0.0056   -0.1019 C   0  0  0  0  0  0  0  0  0  0  0  0
    1.3107    1.4602   -0.1109 C   0  0  0  0  0  0  0  0  0  0  0  0
    1.3518   -0.6486    1.0189 O   0  0  0  0  0  0  0  0  0  0  0  0
   -1.3087    0.6254   -1.1764 O   0  0  0  0  0  0  0  0  0  0  0  0
   -1.3221   -1.4842    0.0008 C   0  0  0  0  0  0  0  0  0  0  0  0
   -2.7024   -1.6910    0.2105 O   0  0  0  0  0  0  0  0  0  0  0  0
   -0.6811   -2.4125   -0.4467 O   0  0  0  0  0  0  0  0  0  0  0  0
    2.6274    1.7124    0.3299 O   0  0  0  0  0  0  0  0  0  0  0  0
    0.7459    2.3231   -0.7505 O   0  0  0  0  0  0  0  0  0  0  0  0
   -1.1139    0.4958    0.8840 H   0  0  0  0  0  0  0  0  0  0  0  0
    1.1408   -0.4954   -1.0434 H   0  0  0  0  0  0  0  0  0  0  0  0
    2.2634   -0.2837    1.1689 H   0  0  0  0  0  0  0  0  0  0  0  0
   -0.8497    1.5013   -1.2793 H   0  0  0  0  0  0  0  0  0  0  0  0
   -2.9211   -2.6244   -0.0428 H   0  0  0  0  0  0  0  0  0  0  0  0
    2.8784    2.6313    0.0555 H   0  0  0  0  0  0  0  0  0  0  0  0
  1  2  1  0  0  0  0
  1  5  1  6  0  0  0
  1  6  1  0  0  0  0
  1 11  1  1  0  0  0
  2  3  1  0  0  0  0
  2  4  1  1  0  0  0
  2 12  1  6  0  0  0
  3  9  1  0  0  0  0
  3 10  2  0  0  0  0
  4 13  1  0  0  0  0
  5 14  1  0  0  0  0
  6  7  1  0  0  0  0
  6  8  2  0  0  0  0
  7 15  1  0  0  0  0
  9 16  1  0  0  0  0
M  END
