  - chloromethane -  
  ChemoJun12080615223D 1   1.00000     0.00000     0
  This molfile was created by ChemoJun053 at 2006/12/08 15:22:19
  5  4  0  0  0  0  0  0  0  0  1 V2000
   -0.6929   -0.2641    0.0000 C   0  0  0  0  0  0  0  0  0  0  0  0
    1.0673   -0.2638    0.0000 Cl  0  0  0  0  0  0  0  0  0  0  0  0
   -1.0673    0.7938    0.0000 H   0  0  0  0  0  0  0  0  0  0  0  0
   -1.0672   -0.7936    0.9154 H   0  0  0  0  0  0  0  0  0  0  0  0
   -1.0672   -0.7936   -0.9154 H   0  0  0  0  0  0  0  0  0  0  0  0
  1  2  1  0  0  0  0
  1  3  1  0  0  0  0
  1  4  1  1  0  0  0
  1  5  1  6  0  0  0
M  END
