  - tetrachloromethane -  
  ChemoJun12080615223D 1   1.00000     0.00000     0
  This molfile was created by ChemoJun053 at 2006/12/08 15:22:19
  5  4  0  0  0  0  0  0  0  0  1 V2000
    0.4139    1.1733    0.0000 Cl  0  0  0  0  0  0  0  0  0  0  0  0
    0.4146   -0.5868    0.0000 C   0  0  0  0  0  0  0  0  0  0  0  0
   -1.2448   -1.1736    0.0000 Cl  0  0  0  0  0  0  0  0  0  0  0  0
    1.2446   -1.1733    1.4369 Cl  0  0  0  0  0  0  0  0  0  0  0  0
    1.2446   -1.1733   -1.4369 Cl  0  0  0  0  0  0  0  0  0  0  0  0
  1  2  1  0  0  0  0
  2  3  1  0  0  0  0
  2  4  1  1  0  0  0
  2  5  1  6  0  0  0
M  END
