  - n-butane -  
  ChemoJun12080615153D 1   1.00000     0.00000     0
  This molfile was created by ChemoJun053 at 2006/12/08 15:15:41
 14 13  0  0  0  0  0  0  0  0  1 V2000
   -1.8695    0.6232    0.0000 C   0  0  0  0  0  0  0  0  0  0  0  0
   -0.6810   -0.3717    0.0000 C   0  0  0  0  0  0  0  0  0  0  0  0
    0.6810    0.3717    0.0000 C   0  0  0  0  0  0  0  0  0  0  0  0
    1.8695   -0.6232    0.0000 C   0  0  0  0  0  0  0  0  0  0  0  0
   -2.8432    0.0633    0.0000 H   0  0  0  0  0  0  0  0  0  0  0  0
   -1.8308    1.2755   -0.9132 H   0  0  0  0  0  0  0  0  0  0  0  0
   -1.8308    1.2755    0.9132 H   0  0  0  0  0  0  0  0  0  0  0  0
   -0.7482   -1.0295   -0.9101 H   0  0  0  0  0  0  0  0  0  0  0  0
   -0.7482   -1.0295    0.9101 H   0  0  0  0  0  0  0  0  0  0  0  0
    0.7482    1.0295    0.9101 H   0  0  0  0  0  0  0  0  0  0  0  0
    0.7482    1.0295   -0.9101 H   0  0  0  0  0  0  0  0  0  0  0  0
    2.8432   -0.0633    0.0000 H   0  0  0  0  0  0  0  0  0  0  0  0
    1.8308   -1.2755   -0.9132 H   0  0  0  0  0  0  0  0  0  0  0  0
    1.8308   -1.2755    0.9132 H   0  0  0  0  0  0  0  0  0  0  0  0
  1  2  1  0  0  0  0
  1  5  1  0  0  0  0
  1  6  1  6  0  0  0
  1  7  1  1  0  0  0
  2  3  1  0  0  0  0
  2  8  1  6  0  0  0
  2  9  1  1  0  0  0
  3  4  1  0  0  0  0
  3 10  1  1  0  0  0
  3 11  1  6  0  0  0
  4 12  1  0  0  0  0
  4 13  1  6  0  0  0
  4 14  1  1  0  0  0
M  END
