  - isopentyl-acetate -  
  ChemoJun12080615183D 1   1.00000     0.00000     0
  This molfile was created by ChemoJun053 at 2006/12/08 15:18:45
 20 19  0  0  0  0  0  0  0  0  1 V2000
   -3.1475   -0.3507    0.6420 C   0  0  0  0  0  0  0  0  0  0  0  0
   -1.8811    0.5364    0.6481 C   0  0  0  0  0  0  0  0  0  0  0  0
   -0.6128   -0.1020    0.6306 O   0  0  0  0  0  0  0  0  0  0  0  0
   -1.9986    1.7455    0.6409 O   0  0  0  0  0  0  0  0  0  0  0  0
    0.5207    0.7568    0.5937 C   0  0  0  0  0  0  0  0  0  0  0  0
    1.8398   -0.0682    0.5904 C   0  0  0  0  0  0  0  0  0  0  0  0
    3.0712    0.8764    0.6472 C   0  0  0  0  0  0  0  0  0  0  0  0
    1.9245   -0.9854   -0.6599 C   0  0  0  0  0  0  0  0  0  0  0  0
   -4.0765    0.2793    0.6370 H   0  0  0  0  0  0  0  0  0  0  0  0
   -3.1510   -1.0009    1.5569 H   0  0  0  0  0  0  0  0  0  0  0  0
   -3.1419   -1.0018   -0.2722 H   0  0  0  0  0  0  0  0  0  0  0  0
    0.5165    1.4295    1.4960 H   0  0  0  0  0  0  0  0  0  0  0  0
    0.4900    1.3991   -0.3291 H   0  0  0  0  0  0  0  0  0  0  0  0
    1.8522   -0.7200    1.5107 H   0  0  0  0  0  0  0  0  0  0  0  0
    4.0215    0.2787    0.6678 H   0  0  0  0  0  0  0  0  0  0  0  0
    3.0338    1.5136    1.5710 H   0  0  0  0  0  0  0  0  0  0  0  0
    3.0883    1.5474   -0.2528 H   0  0  0  0  0  0  0  0  0  0  0  0
    2.9082   -1.5261   -0.6811 H   0  0  0  0  0  0  0  0  0  0  0  0
    1.8292   -0.3753   -1.5973 H   0  0  0  0  0  0  0  0  0  0  0  0
    1.1035   -1.7507   -0.6428 H   0  0  0  0  0  0  0  0  0  0  0  0
  1  2  1  0  0  0  0
  1  9  1  0  0  0  0
  1 10  1  1  0  0  0
  1 11  1  6  0  0  0
  2  3  1  0  0  0  0
  2  4  2  0  0  0  0
  3  5  1  0  0  0  0
  5  6  1  0  0  0  0
  5 12  1  1  0  0  0
  5 13  1  6  0  0  0
  6  7  1  0  0  0  0
  6  8  1  6  0  0  0
  6 14  1  1  0  0  0
  7 15  1  0  0  0  0
  7 16  1  1  0  0  0
  7 17  1  6  0  0  0
  8 18  1  0  0  0  0
  8 19  1  6  0  0  0
  8 20  1  0  0  0  0
M  END
