  - asp -  
  ChemoJun12080615163D 1   1.00000     0.00000     0
  This molfile was created by ChemoJun053 at 2006/12/08 15:16:49
 16 15  0  0  0  0  0  0  0  0  1 V2000
   -1.4657   -1.5684    0.0717 N   0  0  0  0  0  0  0  0  0  0  0  0
   -0.3438   -0.9766   -0.6350 C   0  0  0  0  0  0  0  0  0  0  0  0
    0.9571   -1.3649    0.1091 C   0  0  0  0  0  0  0  0  0  0  0  0
    1.6591   -2.2634   -0.3065 O   0  0  0  0  0  0  0  0  0  0  0  0
   -0.5056    0.5640   -0.7096 C   0  0  0  0  0  0  0  0  0  0  0  0
    0.7608    1.2496   -1.2738 C   0  0  0  0  0  0  0  0  0  0  0  0
    1.2606    2.4246   -0.6729 O   0  0  0  0  0  0  0  0  0  0  0  0
    1.2211    0.9156   -2.3456 O   0  0  0  0  0  0  0  0  0  0  0  0
    1.1781   -0.9145    1.4282 O   0  0  0  0  0  0  0  0  0  0  0  0
   -1.4292   -1.2933    1.0618 H   0  0  0  0  0  0  0  0  0  0  0  0
   -1.4139   -2.5929    0.0018 H   0  0  0  0  0  0  0  0  0  0  0  0
   -0.3187   -1.3996   -1.6776 H   0  0  0  0  0  0  0  0  0  0  0  0
   -1.3778    0.8244   -1.3692 H   0  0  0  0  0  0  0  0  0  0  0  0
   -0.7124    0.9718    0.3170 H   0  0  0  0  0  0  0  0  0  0  0  0
    2.0001    2.7749   -1.2333 H   0  0  0  0  0  0  0  0  0  0  0  0
    1.8259   -1.5257    1.8640 H   0  0  0  0  0  0  0  0  0  0  0  0
  1  2  1  6  0  0  0
  1 10  1  1  0  0  0
  1 11  1  0  0  0  0
  2  3  1  1  0  0  0
  2  5  1  0  0  0  0
  2 12  1  6  0  0  0
  3  4  2  0  0  0  0
  3  9  1  1  0  0  0
  5  6  1  0  0  0  0
  5 13  1  6  0  0  0
  5 14  1  1  0  0  0
  6  7  1  0  0  0  0
  6  8  2  0  0  0  0
  7 15  1  6  0  0  0
  9 16  1  0  0  0  0
M  END
