  - trp -  
  ChemoJun12080615163D 1   1.00000     0.00000     0
  This molfile was created by ChemoJun053 at 2006/12/08 15:16:50
 27 28  0  0  0  0  0  0  0  0  1 V2000
   -1.5476   -2.2091   -2.2527 N   0  0  0  0  0  0  0  0  0  0  0  0
   -0.1708   -1.8621   -2.5547 C   0  0  0  0  0  0  0  0  0  0  0  0
    0.7808   -2.3149   -1.4213 C   0  0  0  0  0  0  0  0  0  0  0  0
    0.7409   -3.4562   -1.0103 O   0  0  0  0  0  0  0  0  0  0  0  0
   -0.0719   -0.3447   -2.8448 C   0  0  0  0  0  0  0  0  0  0  0  0
   -0.4713    0.5921   -1.6854 C   0  0  0  0  0  0  0  0  0  0  0  0
   -0.4056    1.9197   -1.7528 C   0  0  0  0  0  0  0  0  0  0  0  0
   -1.0266    0.2920   -0.1235 C   0  0  0  0  0  0  0  0  0  0  0  0
   -0.8100    2.6235   -0.5343 N   0  0  0  0  0  0  0  0  0  0  0  0
   -1.1723    1.5888    0.4220 C   0  0  0  0  0  0  0  0  0  0  0  0
   -1.3193   -0.8640    0.6386 C   0  0  0  0  0  0  0  0  0  0  0  0
   -1.6103    1.7716    1.7541 C   0  0  0  0  0  0  0  0  0  0  0  0
   -1.7690   -0.6831    1.9732 C   0  0  0  0  0  0  0  0  0  0  0  0
   -1.9112    0.6193    2.5269 C   0  0  0  0  0  0  0  0  0  0  0  0
    1.7668   -1.4563   -0.8903 O   0  0  0  0  0  0  0  0  0  0  0  0
   -1.9645   -1.4614   -1.6813 H   0  0  0  0  0  0  0  0  0  0  0  0
   -1.5741   -3.0941   -1.7302 H   0  0  0  0  0  0  0  0  0  0  0  0
    0.1315   -2.4247   -3.4831 H   0  0  0  0  0  0  0  0  0  0  0  0
    0.9830   -0.0989   -3.1470 H   0  0  0  0  0  0  0  0  0  0  0  0
   -0.7356   -0.1035   -3.7206 H   0  0  0  0  0  0  0  0  0  0  0  0
   -0.0573    2.4656   -2.6680 H   0  0  0  0  0  0  0  0  0  0  0  0
   -0.0231    3.1723   -0.1683 H   0  0  0  0  0  0  0  0  0  0  0  0
   -1.2024   -1.8978    0.2276 H   0  0  0  0  0  0  0  0  0  0  0  0
   -1.7163    2.8022    2.1860 H   0  0  0  0  0  0  0  0  0  0  0  0
   -2.0119   -1.5820    2.6025 H   0  0  0  0  0  0  0  0  0  0  0  0
   -2.2633    0.7378    3.5873 H   0  0  0  0  0  0  0  0  0  0  0  0
    2.2190   -1.9226   -0.1416 H   0  0  0  0  0  0  0  0  0  0  0  0
  1  2  1  0  0  0  0
  1 16  1  1  0  0  0
  1 17  1  1  0  0  0
  2  3  1  1  0  0  0
  2  5  1  0  0  0  0
  2 18  1  6  0  0  0
  3  4  2  0  0  0  0
  3 15  1  0  0  0  0
  5  6  1  1  0  0  0
  5 19  1  0  0  0  0
  5 20  1  6  0  0  0
  6  7  2  0  0  0  0
  6  8  1  1  0  0  0
  7  9  1  1  0  0  0
  7 21  1  6  0  0  0
  8 10  2  0  0  0  0
  8 11  1  1  0  0  0
  9 10  1  1  0  0  0
  9 22  1  0  0  0  0
 10 12  1  1  0  0  0
 11 13  2  0  0  0  0
 11 23  1  0  0  0  0
 12 14  2  0  0  0  0
 12 24  1  0  0  0  0
 13 14  1  0  0  0  0
 13 25  1  1  0  0  0
 14 26  1  1  0  0  0
 15 27  1  1  0  0  0
M  END
