  - ethylmethylether -  
  ChemoJun12080615193D 1   1.00000     0.00000     0
  This molfile was created by ChemoJun053 at 2006/12/08 15:19:12
 12 11  0  0  0  0  0  0  0  0  1 V2000
   -1.7552   -0.6275    0.0000 C   0  0  0  0  0  0  0  0  0  0  0  0
   -0.5992    0.4052    0.0000 C   0  0  0  0  0  0  0  0  0  0  0  0
    0.6574   -0.2632    0.0000 O   0  0  0  0  0  0  0  0  0  0  0  0
    1.7833    0.6055    0.0000 C   0  0  0  0  0  0  0  0  0  0  0  0
   -2.7469   -0.1001    0.0000 H   0  0  0  0  0  0  0  0  0  0  0  0
   -1.6931   -1.2786    0.9131 H   0  0  0  0  0  0  0  0  0  0  0  0
   -1.6931   -1.2786   -0.9131 H   0  0  0  0  0  0  0  0  0  0  0  0
   -0.6910    1.0573    0.9127 H   0  0  0  0  0  0  0  0  0  0  0  0
   -0.6910    1.0573   -0.9127 H   0  0  0  0  0  0  0  0  0  0  0  0
    2.7273   -0.0039    0.0000 H   0  0  0  0  0  0  0  0  0  0  0  0
    1.7850    1.2573    0.9148 H   0  0  0  0  0  0  0  0  0  0  0  0
    1.7850    1.2573   -0.9148 H   0  0  0  0  0  0  0  0  0  0  0  0
  1  2  1  0  0  0  0
  1  5  1  0  0  0  0
  1  6  1  1  0  0  0
  1  7  1  6  0  0  0
  2  3  1  0  0  0  0
  2  8  1  1  0  0  0
  2  9  1  6  0  0  0
  3  4  1  0  0  0  0
  4 10  1  0  0  0  0
  4 11  1  1  0  0  0
  4 12  1  6  0  0  0
M  END
