  - acetanilide -  
  ChemoJun12080615173D 1   1.00000     0.00000     0
  This molfile was created by ChemoJun053 at 2006/12/08 15:17:32
 19 19  0  0  0  0  0  0  0  0  1 V2000
   -3.0559    0.7574    0.0169 C   0  0  0  0  0  0  0  0  0  0  0  0
   -3.1984   -0.6526    0.0182 C   0  0  0  0  0  0  0  0  0  0  0  0
   -2.0429   -1.4736    0.0181 C   0  0  0  0  0  0  0  0  0  0  0  0
   -0.7500   -0.8895    0.0173 C   0  0  0  0  0  0  0  0  0  0  0  0
   -0.5989    0.5229    0.0151 C   0  0  0  0  0  0  0  0  0  0  0  0
   -1.7622    1.3381    0.0154 C   0  0  0  0  0  0  0  0  0  0  0  0
    0.6689    1.2340    0.0154 N   0  0  0  0  0  0  0  0  0  0  0  0
    2.0087    0.6752   -0.0060 C   0  0  0  0  0  0  0  0  0  0  0  0
    2.2221   -0.5181   -0.0265 O   0  0  0  0  0  0  0  0  0  0  0  0
    3.2061    1.6534   -0.0045 C   0  0  0  0  0  0  0  0  0  0  0  0
   -3.9679    1.4137    0.0178 H   0  0  0  0  0  0  0  0  0  0  0  0
   -4.2213   -1.1170    0.0202 H   0  0  0  0  0  0  0  0  0  0  0  0
   -2.1526   -2.5919    0.0194 H   0  0  0  0  0  0  0  0  0  0  0  0
    0.1397   -1.5707    0.0193 H   0  0  0  0  0  0  0  0  0  0  0  0
   -1.6621    2.4576    0.0154 H   0  0  0  0  0  0  0  0  0  0  0  0
    0.6003    2.2602    0.0205 H   0  0  0  0  0  0  0  0  0  0  0  0
    4.1782    1.0921   -0.0149 H   0  0  0  0  0  0  0  0  0  0  0  0
    3.1655    2.2938    0.9165 H   0  0  0  0  0  0  0  0  0  0  0  0
    3.1549    2.3096   -0.9137 H   0  0  0  0  0  0  0  0  0  0  0  0
  1  2  2  0  0  0  0
  1  6  1  0  0  0  0
  1 11  1  0  0  0  0
  2  3  1  0  0  0  0
  2 12  1  0  0  0  0
  3  4  2  0  0  0  0
  3 13  1  0  0  0  0
  4  5  1  0  0  0  0
  4 14  1  0  0  0  0
  5  6  2  0  0  0  0
  5  7  1  0  0  0  0
  6 15  1  0  0  0  0
  7  8  1  0  0  0  0
  7 16  1  0  0  0  0
  8  9  2  0  0  0  0
  8 10  1  0  0  0  0
 10 17  1  0  0  0  0
 10 18  1  1  0  0  0
 10 19  1  6  0  0  0
M  END
