  - benzoic-acid -  
  ChemoJun12080615173D 1   1.00000     0.00000     0
  This molfile was created by ChemoJun053 at 2006/12/08 15:17:32
 15 15  0  0  0  0  0  0  0  0  1 V2000
   -2.4588    0.6015    0.0256 C   0  0  0  0  0  0  0  0  0  0  0  0
   -2.4639   -0.8165    0.0248 C   0  0  0  0  0  0  0  0  0  0  0  0
   -1.2370   -1.5284    0.0219 C   0  0  0  0  0  0  0  0  0  0  0  0
   -0.0078   -0.8223    0.0195 C   0  0  0  0  0  0  0  0  0  0  0  0
    0.0023    0.5980    0.0203 C   0  0  0  0  0  0  0  0  0  0  0  0
   -1.2283    1.3076    0.0234 C   0  0  0  0  0  0  0  0  0  0  0  0
    1.4858    1.4304    0.0178 C   0  0  0  0  0  0  0  0  0  0  0  0
    1.5197    2.6427    0.0232 O   0  0  0  0  0  0  0  0  0  0  0  0
    2.7047    0.7218    0.0004 O   0  0  0  0  0  0  0  0  0  0  0  0
   -3.4305    1.1657    0.0279 H   0  0  0  0  0  0  0  0  0  0  0  0
   -3.4382   -1.3760    0.0266 H   0  0  0  0  0  0  0  0  0  0  0  0
   -1.2388   -2.6518    0.0215 H   0  0  0  0  0  0  0  0  0  0  0  0
    0.9607   -1.3906    0.0170 H   0  0  0  0  0  0  0  0  0  0  0  0
   -1.2312    2.4306    0.0242 H   0  0  0  0  0  0  0  0  0  0  0  0
    3.4485    1.3769   -0.0076 H   0  0  0  0  0  0  0  0  0  0  0  0
  1  2  2  0  0  0  0
  1  6  1  0  0  0  0
  1 10  1  0  0  0  0
  2  3  1  0  0  0  0
  2 11  1  0  0  0  0
  3  4  2  0  0  0  0
  3 12  1  0  0  0  0
  4  5  1  0  0  0  0
  4 13  1  0  0  0  0
  5  6  2  0  0  0  0
  5  7  1  0  0  0  0
  6 14  1  0  0  0  0
  7  8  2  0  0  0  0
  7  9  1  0  0  0  0
  9 15  1  0  0  0  0
M  END
