  - o-phthalic-acid -  
  ChemoJun12080615173D 1   1.00000     0.00000     0
  This molfile was created by ChemoJun053 at 2006/12/08 15:17:32
 18 18  0  0  0  0  0  0  0  0  1 V2000
   -2.4749    0.7066    0.0175 C   0  0  0  0  0  0  0  0  0  0  0  0
   -2.4749   -0.7067    0.0174 C   0  0  0  0  0  0  0  0  0  0  0  0
   -1.2393   -1.4009    0.0138 C   0  0  0  0  0  0  0  0  0  0  0  0
    0.0084   -0.7154    0.0102 C   0  0  0  0  0  0  0  0  0  0  0  0
    0.0084    0.7152    0.0118 C   0  0  0  0  0  0  0  0  0  0  0  0
   -1.2392    1.4007    0.0151 C   0  0  0  0  0  0  0  0  0  0  0  0
    1.3817    1.7384    0.0130 C   0  0  0  0  0  0  0  0  0  0  0  0
    1.2264    2.9425    0.0251 O   0  0  0  0  0  0  0  0  0  0  0  0
    2.7167    1.3004   -0.0136 O   0  0  0  0  0  0  0  0  0  0  0  0
    1.3816   -1.7387    0.0019 C   0  0  0  0  0  0  0  0  0  0  0  0
    1.2262   -2.9426   -0.0194 O   0  0  0  0  0  0  0  0  0  0  0  0
    2.7168   -1.3006    0.0097 O   0  0  0  0  0  0  0  0  0  0  0  0
   -3.4450    1.2729    0.0200 H   0  0  0  0  0  0  0  0  0  0  0  0
   -3.4450   -1.2730    0.0199 H   0  0  0  0  0  0  0  0  0  0  0  0
   -1.2622   -2.5240    0.0135 H   0  0  0  0  0  0  0  0  0  0  0  0
   -1.2622    2.5239    0.0161 H   0  0  0  0  0  0  0  0  0  0  0  0
    3.3077    2.0955   -0.0238 H   0  0  0  0  0  0  0  0  0  0  0  0
    3.3079   -2.0956    0.0089 H   0  0  0  0  0  0  0  0  0  0  0  0
  1  2  2  0  0  0  0
  1  6  1  0  0  0  0
  1 13  1  0  0  0  0
  2  3  1  0  0  0  0
  2 14  1  0  0  0  0
  3  4  2  0  0  0  0
  3 15  1  0  0  0  0
  4  5  1  0  0  0  0
  4 10  1  0  0  0  0
  5  6  2  0  0  0  0
  5  7  1  0  0  0  0
  6 16  1  0  0  0  0
  7  8  2  0  0  0  0
  7  9  1  0  0  0  0
  9 17  1  0  0  0  0
 10 11  2  0  0  0  0
 10 12  1  0  0  0  0
 12 18  1  0  0  0  0
M  END
