  - 2-methyl-propane -  
  ChemoJun12080615153D 1   1.00000     0.00000     0
  This molfile was created by ChemoJun053 at 2006/12/08 15:15:41
 14 13  0  0  0  0  0  0  0  0  1 V2000
   -1.3303   -0.7612   -0.6359 C   0  0  0  0  0  0  0  0  0  0  0  0
    0.0208    0.0027   -0.6109 C   0  0  0  0  0  0  0  0  0  0  0  0
    1.2102   -0.9945   -0.6357 C   0  0  0  0  0  0  0  0  0  0  0  0
    0.1049    0.9194    0.6388 C   0  0  0  0  0  0  0  0  0  0  0  0
   -2.1875   -0.0360   -0.6443 H   0  0  0  0  0  0  0  0  0  0  0  0
   -1.4230   -1.4184    0.2696 H   0  0  0  0  0  0  0  0  0  0  0  0
   -1.3983   -1.4023   -1.5552 H   0  0  0  0  0  0  0  0  0  0  0  0
    0.0804    0.6507   -1.5324 H   0  0  0  0  0  0  0  0  0  0  0  0
    2.1852   -0.4376   -0.6442 H   0  0  0  0  0  0  0  0  0  0  0  0
    1.1603   -1.6373   -1.5550 H   0  0  0  0  0  0  0  0  0  0  0  0
    1.1815   -1.6575    0.2698 H   0  0  0  0  0  0  0  0  0  0  0  0
    1.0723    1.4895    0.6393 H   0  0  0  0  0  0  0  0  0  0  0  0
    0.0478    0.3053    1.5769 H   0  0  0  0  0  0  0  0  0  0  0  0
   -0.7419    1.6569    0.6386 H   0  0  0  0  0  0  0  0  0  0  0  0
  1  2  1  0  0  0  0
  1  5  1  0  0  0  0
  1  6  1  1  0  0  0
  1  7  1  6  0  0  0
  2  3  1  0  0  0  0
  2  4  1  1  0  0  0
  2  8  1  6  0  0  0
  3  9  1  0  0  0  0
  3 10  1  6  0  0  0
  3 11  1  1  0  0  0
  4 12  1  0  0  0  0
  4 13  1  1  0  0  0
  4 14  1  0  0  0  0
M  END
