  - n-heptadecane -  
  ChemoJun12080615153D 1   1.00000     0.00000     0
  This molfile was created by ChemoJun053 at 2006/12/08 15:15:41
 53 52  0  0  0  0  0  0  0  0  1 V2000
  -10.1528   -1.3300    0.0000 C   0  0  0  0  0  0  0  0  0  0  0  0
   -8.9632   -0.3364    0.0000 C   0  0  0  0  0  0  0  0  0  0  0  0
   -7.6022   -1.0811    0.0000 C   0  0  0  0  0  0  0  0  0  0  0  0
   -6.4088   -0.0889    0.0000 C   0  0  0  0  0  0  0  0  0  0  0  0
   -5.0506   -0.8396    0.0000 C   0  0  0  0  0  0  0  0  0  0  0  0
   -3.8520    0.1459    0.0000 C   0  0  0  0  0  0  0  0  0  0  0  0
   -2.4969   -0.6104    0.0000 C   0  0  0  0  0  0  0  0  0  0  0  0
   -1.2977    0.3746    0.0000 C   0  0  0  0  0  0  0  0  0  0  0  0
    0.0587   -0.3793    0.0000 C   0  0  0  0  0  0  0  0  0  0  0  0
    1.2551    0.6091    0.0000 C   0  0  0  0  0  0  0  0  0  0  0  0
    2.6136   -0.1408    0.0000 C   0  0  0  0  0  0  0  0  0  0  0  0
    3.8082    0.8497    0.0000 C   0  0  0  0  0  0  0  0  0  0  0  0
    5.1664    0.0992    0.0000 C   0  0  0  0  0  0  0  0  0  0  0  0
    6.3650    1.0849    0.0000 C   0  0  0  0  0  0  0  0  0  0  0  0
    7.7193    0.3267    0.0000 C   0  0  0  0  0  0  0  0  0  0  0  0
    8.9218    1.3070    0.0000 C   0  0  0  0  0  0  0  0  0  0  0  0
   10.2725    0.5468    0.0000 C   0  0  0  0  0  0  0  0  0  0  0  0
  -11.1260   -0.7692    0.0000 H   0  0  0  0  0  0  0  0  0  0  0  0
  -10.1149   -1.9820    0.9136 H   0  0  0  0  0  0  0  0  0  0  0  0
  -10.1149   -1.9820   -0.9136 H   0  0  0  0  0  0  0  0  0  0  0  0
   -9.0300    0.3211    0.9103 H   0  0  0  0  0  0  0  0  0  0  0  0
   -9.0300    0.3211   -0.9103 H   0  0  0  0  0  0  0  0  0  0  0  0
   -7.5390   -1.7389   -0.9099 H   0  0  0  0  0  0  0  0  0  0  0  0
   -7.5390   -1.7389    0.9099 H   0  0  0  0  0  0  0  0  0  0  0  0
   -6.4710    0.5686    0.9102 H   0  0  0  0  0  0  0  0  0  0  0  0
   -6.4710    0.5686   -0.9102 H   0  0  0  0  0  0  0  0  0  0  0  0
   -4.9899   -1.4974   -0.9100 H   0  0  0  0  0  0  0  0  0  0  0  0
   -4.9899   -1.4974    0.9100 H   0  0  0  0  0  0  0  0  0  0  0  0
   -3.9111    0.8039    0.9100 H   0  0  0  0  0  0  0  0  0  0  0  0
   -3.9111    0.8039   -0.9100 H   0  0  0  0  0  0  0  0  0  0  0  0
   -2.4377   -1.2684   -0.9100 H   0  0  0  0  0  0  0  0  0  0  0  0
   -2.4377   -1.2684    0.9100 H   0  0  0  0  0  0  0  0  0  0  0  0
   -1.3574    1.0324    0.9101 H   0  0  0  0  0  0  0  0  0  0  0  0
   -1.3574    1.0324   -0.9101 H   0  0  0  0  0  0  0  0  0  0  0  0
    0.1192   -1.0371   -0.9102 H   0  0  0  0  0  0  0  0  0  0  0  0
    0.1192   -1.0371    0.9102 H   0  0  0  0  0  0  0  0  0  0  0  0
    1.1939    1.2668    0.9101 H   0  0  0  0  0  0  0  0  0  0  0  0
    1.1939    1.2668   -0.9101 H   0  0  0  0  0  0  0  0  0  0  0  0
    2.6754   -0.7985   -0.9100 H   0  0  0  0  0  0  0  0  0  0  0  0
    2.6754   -0.7985    0.9100 H   0  0  0  0  0  0  0  0  0  0  0  0
    3.7464    1.5075    0.9100 H   0  0  0  0  0  0  0  0  0  0  0  0
    3.7464    1.5075   -0.9100 H   0  0  0  0  0  0  0  0  0  0  0  0
    5.2266   -0.5587   -0.9100 H   0  0  0  0  0  0  0  0  0  0  0  0
    5.2266   -0.5587    0.9100 H   0  0  0  0  0  0  0  0  0  0  0  0
    6.3063    1.7427    0.9102 H   0  0  0  0  0  0  0  0  0  0  0  0
    6.3063    1.7427   -0.9102 H   0  0  0  0  0  0  0  0  0  0  0  0
    7.7770   -0.3316   -0.9099 H   0  0  0  0  0  0  0  0  0  0  0  0
    7.7770   -0.3316    0.9099 H   0  0  0  0  0  0  0  0  0  0  0  0
    8.8676    1.9657    0.9103 H   0  0  0  0  0  0  0  0  0  0  0  0
    8.8676    1.9657   -0.9103 H   0  0  0  0  0  0  0  0  0  0  0  0
   11.1273    1.2755    0.0000 H   0  0  0  0  0  0  0  0  0  0  0  0
   10.3540   -0.1011   -0.9136 H   0  0  0  0  0  0  0  0  0  0  0  0
   10.3540   -0.1011    0.9136 H   0  0  0  0  0  0  0  0  0  0  0  0
  1  2  1  0  0  0  0
  1 18  1  0  0  0  0
  1 19  1  1  0  0  0
  1 20  1  6  0  0  0
  2  3  1  0  0  0  0
  2 21  1  1  0  0  0
  2 22  1  6  0  0  0
  3  4  1  0  0  0  0
  3 23  1  6  0  0  0
  3 24  1  1  0  0  0
  4  5  1  0  0  0  0
  4 25  1  1  0  0  0
  4 26  1  6  0  0  0
  5  6  1  0  0  0  0
  5 27  1  6  0  0  0
  5 28  1  1  0  0  0
  6  7  1  0  0  0  0
  6 29  1  1  0  0  0
  6 30  1  6  0  0  0
  7  8  1  0  0  0  0
  7 31  1  6  0  0  0
  7 32  1  1  0  0  0
  8  9  1  0  0  0  0
  8 33  1  1  0  0  0
  8 34  1  6  0  0  0
  9 10  1  0  0  0  0
  9 35  1  6  0  0  0
  9 36  1  1  0  0  0
 10 11  1  0  0  0  0
 10 37  1  1  0  0  0
 10 38  1  6  0  0  0
 11 12  1  0  0  0  0
 11 39  1  6  0  0  0
 11 40  1  1  0  0  0
 12 13  1  0  0  0  0
 12 41  1  1  0  0  0
 12 42  1  6  0  0  0
 13 14  1  0  0  0  0
 13 43  1  6  0  0  0
 13 44  1  1  0  0  0
 14 15  1  0  0  0  0
 14 45  1  1  0  0  0
 14 46  1  6  0  0  0
 15 16  1  0  0  0  0
 15 47  1  6  0  0  0
 15 48  1  1  0  0  0
 16 17  1  0  0  0  0
 16 49  1  1  0  0  0
 16 50  1  6  0  0  0
 17 51  1  0  0  0  0
 17 52  1  6  0  0  0
 17 53  1  1  0  0  0
M  END
