  - n-icosane -  
  ChemoJun12080615153D 1   1.00000     0.00000     0
  This molfile was created by ChemoJun053 at 2006/12/08 15:15:42
 62 61  0  0  0  0  0  0  0  0  1 V2000
  -12.0873   -1.5639    0.0000 C   0  0  0  0  0  0  0  0  0  0  0  0
  -10.8971   -0.5711    0.0000 C   0  0  0  0  0  0  0  0  0  0  0  0
   -9.5361   -1.3163    0.0000 C   0  0  0  0  0  0  0  0  0  0  0  0
   -8.3432   -0.3233    0.0000 C   0  0  0  0  0  0  0  0  0  0  0  0
   -6.9841   -1.0725    0.0000 C   0  0  0  0  0  0  0  0  0  0  0  0
   -5.7866   -0.0858    0.0000 C   0  0  0  0  0  0  0  0  0  0  0  0
   -4.4313   -0.8422    0.0000 C   0  0  0  0  0  0  0  0  0  0  0  0
   -3.2314    0.1417    0.0000 C   0  0  0  0  0  0  0  0  0  0  0  0
   -1.8750   -0.6124    0.0000 C   0  0  0  0  0  0  0  0  0  0  0  0
   -0.6784    0.3759    0.0000 C   0  0  0  0  0  0  0  0  0  0  0  0
    0.6784   -0.3759    0.0000 C   0  0  0  0  0  0  0  0  0  0  0  0
    1.8750    0.6124    0.0000 C   0  0  0  0  0  0  0  0  0  0  0  0
    3.2314   -0.1417    0.0000 C   0  0  0  0  0  0  0  0  0  0  0  0
    4.4313    0.8422    0.0000 C   0  0  0  0  0  0  0  0  0  0  0  0
    5.7866    0.0858    0.0000 C   0  0  0  0  0  0  0  0  0  0  0  0
    6.9841    1.0725    0.0000 C   0  0  0  0  0  0  0  0  0  0  0  0
    8.3432    0.3233    0.0000 C   0  0  0  0  0  0  0  0  0  0  0  0
    9.5361    1.3163    0.0000 C   0  0  0  0  0  0  0  0  0  0  0  0
   10.8971    0.5711    0.0000 C   0  0  0  0  0  0  0  0  0  0  0  0
   12.0873    1.5639    0.0000 C   0  0  0  0  0  0  0  0  0  0  0  0
  -13.0601   -1.0025    0.0000 H   0  0  0  0  0  0  0  0  0  0  0  0
  -12.0494   -2.2156    0.9138 H   0  0  0  0  0  0  0  0  0  0  0  0
  -12.0494   -2.2156   -0.9138 H   0  0  0  0  0  0  0  0  0  0  0  0
  -10.9637    0.0862    0.9104 H   0  0  0  0  0  0  0  0  0  0  0  0
  -10.9637    0.0862   -0.9104 H   0  0  0  0  0  0  0  0  0  0  0  0
   -9.4731   -1.9739   -0.9101 H   0  0  0  0  0  0  0  0  0  0  0  0
   -9.4731   -1.9739    0.9101 H   0  0  0  0  0  0  0  0  0  0  0  0
   -8.4053    0.3341    0.9102 H   0  0  0  0  0  0  0  0  0  0  0  0
   -8.4053    0.3341   -0.9102 H   0  0  0  0  0  0  0  0  0  0  0  0
   -6.9226   -1.7303   -0.9099 H   0  0  0  0  0  0  0  0  0  0  0  0
   -6.9226   -1.7303    0.9099 H   0  0  0  0  0  0  0  0  0  0  0  0
   -5.8462    0.5723    0.9099 H   0  0  0  0  0  0  0  0  0  0  0  0
   -5.8462    0.5723   -0.9099 H   0  0  0  0  0  0  0  0  0  0  0  0
   -4.3730   -1.5001   -0.9100 H   0  0  0  0  0  0  0  0  0  0  0  0
   -4.3730   -1.5001    0.9100 H   0  0  0  0  0  0  0  0  0  0  0  0
   -3.2905    0.7995    0.9101 H   0  0  0  0  0  0  0  0  0  0  0  0
   -3.2905    0.7995   -0.9101 H   0  0  0  0  0  0  0  0  0  0  0  0
   -1.8142   -1.2701   -0.9100 H   0  0  0  0  0  0  0  0  0  0  0  0
   -1.8142   -1.2701    0.9100 H   0  0  0  0  0  0  0  0  0  0  0  0
   -0.7392    1.0339    0.9101 H   0  0  0  0  0  0  0  0  0  0  0  0
   -0.7392    1.0339   -0.9101 H   0  0  0  0  0  0  0  0  0  0  0  0
    0.7392   -1.0339   -0.9101 H   0  0  0  0  0  0  0  0  0  0  0  0
    0.7392   -1.0339    0.9101 H   0  0  0  0  0  0  0  0  0  0  0  0
    1.8142    1.2701    0.9100 H   0  0  0  0  0  0  0  0  0  0  0  0
    1.8142    1.2701   -0.9100 H   0  0  0  0  0  0  0  0  0  0  0  0
    3.2905   -0.7995   -0.9101 H   0  0  0  0  0  0  0  0  0  0  0  0
    3.2905   -0.7995    0.9101 H   0  0  0  0  0  0  0  0  0  0  0  0
    4.3730    1.5001    0.9100 H   0  0  0  0  0  0  0  0  0  0  0  0
    4.3730    1.5001   -0.9100 H   0  0  0  0  0  0  0  0  0  0  0  0
    5.8462   -0.5723   -0.9099 H   0  0  0  0  0  0  0  0  0  0  0  0
    5.8462   -0.5723    0.9099 H   0  0  0  0  0  0  0  0  0  0  0  0
    6.9226    1.7303    0.9099 H   0  0  0  0  0  0  0  0  0  0  0  0
    6.9226    1.7303   -0.9099 H   0  0  0  0  0  0  0  0  0  0  0  0
    8.4053   -0.3341   -0.9102 H   0  0  0  0  0  0  0  0  0  0  0  0
    8.4053   -0.3341    0.9102 H   0  0  0  0  0  0  0  0  0  0  0  0
    9.4731    1.9739    0.9101 H   0  0  0  0  0  0  0  0  0  0  0  0
    9.4731    1.9739   -0.9101 H   0  0  0  0  0  0  0  0  0  0  0  0
   10.9637   -0.0862   -0.9104 H   0  0  0  0  0  0  0  0  0  0  0  0
   10.9637   -0.0862    0.9104 H   0  0  0  0  0  0  0  0  0  0  0  0
   13.0601    1.0025    0.0000 H   0  0  0  0  0  0  0  0  0  0  0  0
   12.0494    2.2156    0.9138 H   0  0  0  0  0  0  0  0  0  0  0  0
   12.0494    2.2156   -0.9138 H   0  0  0  0  0  0  0  0  0  0  0  0
  1  2  1  0  0  0  0
  1 21  1  0  0  0  0
  1 22  1  1  0  0  0
  1 23  1  6  0  0  0
  2  3  1  0  0  0  0
  2 24  1  1  0  0  0
  2 25  1  6  0  0  0
  3  4  1  0  0  0  0
  3 26  1  6  0  0  0
  3 27  1  1  0  0  0
  4  5  1  0  0  0  0
  4 28  1  1  0  0  0
  4 29  1  6  0  0  0
  5  6  1  0  0  0  0
  5 30  1  6  0  0  0
  5 31  1  1  0  0  0
  6  7  1  0  0  0  0
  6 32  1  1  0  0  0
  6 33  1  6  0  0  0
  7  8  1  0  0  0  0
  7 34  1  6  0  0  0
  7 35  1  1  0  0  0
  8  9  1  0  0  0  0
  8 36  1  1  0  0  0
  8 37  1  6  0  0  0
  9 10  1  0  0  0  0
  9 38  1  6  0  0  0
  9 39  1  1  0  0  0
 10 11  1  0  0  0  0
 10 40  1  1  0  0  0
 10 41  1  6  0  0  0
 11 12  1  0  0  0  0
 11 42  1  6  0  0  0
 11 43  1  1  0  0  0
 12 13  1  0  0  0  0
 12 44  1  1  0  0  0
 12 45  1  6  0  0  0
 13 14  1  0  0  0  0
 13 46  1  6  0  0  0
 13 47  1  1  0  0  0
 14 15  1  0  0  0  0
 14 48  1  1  0  0  0
 14 49  1  6  0  0  0
 15 16  1  0  0  0  0
 15 50  1  6  0  0  0
 15 51  1  1  0  0  0
 16 17  1  0  0  0  0
 16 52  1  1  0  0  0
 16 53  1  6  0  0  0
 17 18  1  0  0  0  0
 17 54  1  6  0  0  0
 17 55  1  1  0  0  0
 18 19  1  0  0  0  0
 18 56  1  1  0  0  0
 18 57  1  6  0  0  0
 19 20  1  0  0  0  0
 19 58  1  6  0  0  0
 19 59  1  1  0  0  0
 20 60  1  0  0  0  0
 20 61  1  1  0  0  0
 20 62  1  6  0  0  0
M  END
