  - n-octane-straight -  
  ChemoJun12080615153D 1   1.00000     0.00000     0
  This molfile was created by ChemoJun053 at 2006/12/08 15:15:42
 26 25  0  0  0  0  0  0  0  0  1 V2000
   -4.4247    0.8556    0.0000 C   0  0  0  0  0  0  0  0  0  0  0  0
   -3.2348   -0.1378    0.0000 C   0  0  0  0  0  0  0  0  0  0  0  0
   -1.8760    0.6114    0.0000 C   0  0  0  0  0  0  0  0  0  0  0  0
   -0.6790   -0.3760    0.0000 C   0  0  0  0  0  0  0  0  0  0  0  0
    0.6790    0.3760    0.0000 C   0  0  0  0  0  0  0  0  0  0  0  0
    1.8760   -0.6114    0.0000 C   0  0  0  0  0  0  0  0  0  0  0  0
    3.2348    0.1378    0.0000 C   0  0  0  0  0  0  0  0  0  0  0  0
    4.4247   -0.8556    0.0000 C   0  0  0  0  0  0  0  0  0  0  0  0
   -5.3983    0.2956    0.0000 H   0  0  0  0  0  0  0  0  0  0  0  0
   -4.3861    1.5085   -0.9129 H   0  0  0  0  0  0  0  0  0  0  0  0
   -4.3861    1.5085    0.9129 H   0  0  0  0  0  0  0  0  0  0  0  0
   -3.3009   -0.7959   -0.9099 H   0  0  0  0  0  0  0  0  0  0  0  0
   -3.3009   -0.7959    0.9099 H   0  0  0  0  0  0  0  0  0  0  0  0
   -1.8153    1.2692    0.9102 H   0  0  0  0  0  0  0  0  0  0  0  0
   -1.8153    1.2692   -0.9102 H   0  0  0  0  0  0  0  0  0  0  0  0
   -0.7399   -1.0335   -0.9100 H   0  0  0  0  0  0  0  0  0  0  0  0
   -0.7399   -1.0335    0.9100 H   0  0  0  0  0  0  0  0  0  0  0  0
    0.7399    1.0335    0.9100 H   0  0  0  0  0  0  0  0  0  0  0  0
    0.7399    1.0335   -0.9100 H   0  0  0  0  0  0  0  0  0  0  0  0
    1.8153   -1.2692   -0.9102 H   0  0  0  0  0  0  0  0  0  0  0  0
    1.8153   -1.2692    0.9102 H   0  0  0  0  0  0  0  0  0  0  0  0
    3.3009    0.7959    0.9099 H   0  0  0  0  0  0  0  0  0  0  0  0
    3.3009    0.7959   -0.9099 H   0  0  0  0  0  0  0  0  0  0  0  0
    5.3983   -0.2956    0.0000 H   0  0  0  0  0  0  0  0  0  0  0  0
    4.3861   -1.5085   -0.9129 H   0  0  0  0  0  0  0  0  0  0  0  0
    4.3861   -1.5085    0.9129 H   0  0  0  0  0  0  0  0  0  0  0  0
  1  2  1  0  0  0  0
  1  9  1  0  0  0  0
  1 10  1  6  0  0  0
  1 11  1  1  0  0  0
  2  3  1  0  0  0  0
  2 12  1  6  0  0  0
  2 13  1  1  0  0  0
  3  4  1  0  0  0  0
  3 14  1  1  0  0  0
  3 15  1  6  0  0  0
  4  5  1  0  0  0  0
  4 16  1  6  0  0  0
  4 17  1  1  0  0  0
  5  6  1  0  0  0  0
  5 18  1  1  0  0  0
  5 19  1  6  0  0  0
  6  7  1  0  0  0  0
  6 20  1  6  0  0  0
  6 21  1  1  0  0  0
  7  8  1  0  0  0  0
  7 22  1  1  0  0  0
  7 23  1  6  0  0  0
  8 24  1  0  0  0  0
  8 25  1  6  0  0  0
  8 26  1  1  0  0  0
M  END
