  - propane -  
  ChemoJun12080615153D 1   1.00000     0.00000     0
  This molfile was created by ChemoJun053 at 2006/12/08 15:15:42
 11 10  0  0  0  0  0  0  0  0  1 V2000
   -1.3338   -0.2655    0.0000 C   0  0  0  0  0  0  0  0  0  0  0  0
    0.0209    0.4874    0.0000 C   0  0  0  0  0  0  0  0  0  0  0  0
    1.2157   -0.4998    0.0000 C   0  0  0  0  0  0  0  0  0  0  0  0
   -2.1847    0.4677    0.0000 H   0  0  0  0  0  0  0  0  0  0  0  0
   -1.4180   -0.9136    0.9131 H   0  0  0  0  0  0  0  0  0  0  0  0
   -1.4180   -0.9136   -0.9131 H   0  0  0  0  0  0  0  0  0  0  0  0
    0.0815    1.1467    0.9099 H   0  0  0  0  0  0  0  0  0  0  0  0
    0.0815    1.1467   -0.9099 H   0  0  0  0  0  0  0  0  0  0  0  0
    2.1860    0.0660    0.0000 H   0  0  0  0  0  0  0  0  0  0  0  0
    1.1804   -1.1523   -0.9131 H   0  0  0  0  0  0  0  0  0  0  0  0
    1.1804   -1.1523    0.9131 H   0  0  0  0  0  0  0  0  0  0  0  0
  1  2  1  0  0  0  0
  1  4  1  0  0  0  0
  1  5  1  1  0  0  0
  1  6  1  6  0  0  0
  2  3  1  0  0  0  0
  2  7  1  1  0  0  0
  2  8  1  6  0  0  0
  3  9  1  0  0  0  0
  3 10  1  6  0  0  0
  3 11  1  1  0  0  0
M  END
