  - acetoaldehyde -  
  ChemoJun12080615153D 1   1.00000     0.00000     0
  This molfile was created by ChemoJun053 at 2006/12/08 15:15:17
  7  6  0  0  0  0  0  0  0  0  1 V2000
   -0.8869   -0.0393    0.0000 C   0  0  0  0  0  0  0  0  0  0  0  0
    0.6573   -0.0390   -0.0006 C   0  0  0  0  0  0  0  0  0  0  0  0
    1.2820    1.0013   -0.0002 O   0  0  0  0  0  0  0  0  0  0  0  0
   -1.2622   -0.5713   -0.9144 H   0  0  0  0  0  0  0  0  0  0  0  0
   -1.2831    1.0111    0.0003 H   0  0  0  0  0  0  0  0  0  0  0  0
   -1.2615   -0.5712    0.9147 H   0  0  0  0  0  0  0  0  0  0  0  0
    1.2168   -1.0130   -0.0097 H   0  0  0  0  0  0  0  0  0  0  0  0
  1  2  1  0  0  0  0
  1  4  1  6  0  0  0
  1  5  1  0  0  0  0
  1  6  1  1  0  0  0
  2  3  2  0  0  0  0
  2  7  1  0  0  0  0
M  END
