  - ala -  
  ChemoJun12080615163D 1   1.00000     0.00000     0
  This molfile was created by ChemoJun053 at 2006/12/08 15:16:49
 13 12  0  0  0  0  0  0  0  0  1 V2000
   -1.3751   -0.7192   -0.3088 N   0  0  0  0  0  0  0  0  0  0  0  0
   -0.1283   -0.2507   -0.8867 C   0  0  0  0  0  0  0  0  0  0  0  0
    1.0399   -0.7041    0.0218 C   0  0  0  0  0  0  0  0  0  0  0  0
    1.9235   -1.4202   -0.4011 O   0  0  0  0  0  0  0  0  0  0  0  0
   -0.1392    1.2927   -1.0258 C   0  0  0  0  0  0  0  0  0  0  0  0
    1.0899   -0.3054    1.3741 O   0  0  0  0  0  0  0  0  0  0  0  0
   -1.4657   -0.3556    0.6488 H   0  0  0  0  0  0  0  0  0  0  0  0
   -1.3765   -1.7471   -0.2839 H   0  0  0  0  0  0  0  0  0  0  0  0
   -0.0122   -0.7157   -1.9052 H   0  0  0  0  0  0  0  0  0  0  0  0
    0.8418    1.6510   -1.4390 H   0  0  0  0  0  0  0  0  0  0  0  0
   -0.9603    1.6123   -1.7221 H   0  0  0  0  0  0  0  0  0  0  0  0
   -0.3078    1.7757   -0.0262 H   0  0  0  0  0  0  0  0  0  0  0  0
    1.8945   -0.7074    1.7917 H   0  0  0  0  0  0  0  0  0  0  0  0
  1  2  1  0  0  0  0
  1  7  1  1  0  0  0
  1  8  1  0  0  0  0
  2  3  1  1  0  0  0
  2  5  1  0  0  0  0
  2  9  1  6  0  0  0
  3  4  2  0  0  0  0
  3  6  1  1  0  0  0
  5 10  1  0  0  0  0
  5 11  1  6  0  0  0
  5 12  1  1  0  0  0
  6 13  1  0  0  0  0
M  END
