  - thr -  
  ChemoJun12080615163D 1   1.00000     0.00000     0
  This molfile was created by ChemoJun053 at 2006/12/08 15:16:50
 17 16  0  0  0  0  0  0  0  0  1 V2000
   -1.4653   -1.4269   -0.0889 N   0  0  0  0  0  0  0  0  0  0  0  0
   -0.2145   -0.8617   -0.5627 C   0  0  0  0  0  0  0  0  0  0  0  0
    0.9336   -1.4758    0.2739 C   0  0  0  0  0  0  0  0  0  0  0  0
    1.7013   -2.2788   -0.2142 O   0  0  0  0  0  0  0  0  0  0  0  0
   -0.2380    0.6868   -0.4419 C   0  0  0  0  0  0  0  0  0  0  0  0
   -1.3055    1.2160   -1.2127 O   0  0  0  0  0  0  0  0  0  0  0  0
    1.0935    1.3258   -0.9168 C   0  0  0  0  0  0  0  0  0  0  0  0
    1.0330   -1.2136    1.6566 O   0  0  0  0  0  0  0  0  0  0  0  0
   -1.5890   -1.1955    0.9052 H   0  0  0  0  0  0  0  0  0  0  0  0
   -1.4448   -2.4488   -0.2005 H   0  0  0  0  0  0  0  0  0  0  0  0
   -0.0830   -1.1462   -1.6433 H   0  0  0  0  0  0  0  0  0  0  0  0
   -0.4149    0.9719    0.6336 H   0  0  0  0  0  0  0  0  0  0  0  0
   -1.3881    2.1877   -1.0330 H   0  0  0  0  0  0  0  0  0  0  0  0
    1.0107    2.4456   -0.8975 H   0  0  0  0  0  0  0  0  0  0  0  0
    1.9404    1.0210   -0.2461 H   0  0  0  0  0  0  0  0  0  0  0  0
    1.3265    1.0008   -1.9658 H   0  0  0  0  0  0  0  0  0  0  0  0
    1.7721   -1.7616    2.0262 H   0  0  0  0  0  0  0  0  0  0  0  0
  1  2  1  0  0  0  0
  1  9  1  1  0  0  0
  1 10  1  0  0  0  0
  2  3  1  1  0  0  0
  2  5  1  0  0  0  0
  2 11  1  6  0  0  0
  3  4  2  0  0  0  0
  3  8  1  1  0  0  0
  5  6  1  6  0  0  0
  5  7  1  0  0  0  0
  5 12  1  1  0  0  0
  6 13  1  0  0  0  0
  7 14  1  0  0  0  0
  7 15  1  1  0  0  0
  7 16  1  6  0  0  0
  8 17  1  0  0  0  0
M  END
