  - val -  
  ChemoJun12080615163D 1   1.00000     0.00000     0
  This molfile was created by ChemoJun053 at 2006/12/08 15:16:50
 19 18  0  0  0  0  0  0  0  0  1 V2000
   -1.2575   -1.4070    0.0033 N   0  0  0  0  0  0  0  0  0  0  0  0
   -0.0246   -0.8111   -0.4809 C   0  0  0  0  0  0  0  0  0  0  0  0
    1.1401   -1.4435    0.3201 C   0  0  0  0  0  0  0  0  0  0  0  0
    1.9494   -2.1681   -0.2204 O   0  0  0  0  0  0  0  0  0  0  0  0
   -0.0456    0.7371   -0.3241 C   0  0  0  0  0  0  0  0  0  0  0  0
    1.3002    1.3647   -0.7819 C   0  0  0  0  0  0  0  0  0  0  0  0
   -1.2162    1.3635   -1.1317 C   0  0  0  0  0  0  0  0  0  0  0  0
    1.2053   -1.2990    1.7220 O   0  0  0  0  0  0  0  0  0  0  0  0
   -1.3826   -1.1727    0.9966 H   0  0  0  0  0  0  0  0  0  0  0  0
   -1.2101   -2.4287   -0.1021 H   0  0  0  0  0  0  0  0  0  0  0  0
    0.0900   -1.0723   -1.5691 H   0  0  0  0  0  0  0  0  0  0  0  0
   -0.1988    0.9842    0.7654 H   0  0  0  0  0  0  0  0  0  0  0  0
    1.2569    2.4838   -0.7017 H   0  0  0  0  0  0  0  0  0  0  0  0
    2.1457    1.0031   -0.1386 H   0  0  0  0  0  0  0  0  0  0  0  0
    1.5150    1.0887   -1.8485 H   0  0  0  0  0  0  0  0  0  0  0  0
   -1.1783    2.4840   -1.0716 H   0  0  0  0  0  0  0  0  0  0  0  0
   -1.1516    1.0597   -2.2106 H   0  0  0  0  0  0  0  0  0  0  0  0
   -2.2047    1.0263   -0.7203 H   0  0  0  0  0  0  0  0  0  0  0  0
    1.9702   -1.8336    2.0576 H   0  0  0  0  0  0  0  0  0  0  0  0
  1  2  1  0  0  0  0
  1  9  1  1  0  0  0
  1 10  1  0  0  0  0
  2  3  1  1  0  0  0
  2  5  1  0  0  0  0
  2 11  1  6  0  0  0
  3  4  2  0  0  0  0
  3  8  1  1  0  0  0
  5  6  1  0  0  0  0
  5  7  1  6  0  0  0
  5 12  1  1  0  0  0
  6 13  1  0  0  0  0
  6 14  1  1  0  0  0
  6 15  1  6  0  0  0
  7 16  1  0  0  0  0
  7 17  1  6  0  0  0
  7 18  1  0  0  0  0
  8 19  1  0  0  0  0
M  END
