  - 2-methyl-1-propanol -  
  ChemoJun12080615143D 1   1.00000     0.00000     0
  This molfile was created by ChemoJun053 at 2006/12/08 15:14:22
 15 14  0  0  0  0  0  0  0  0  1 V2000
   -1.7465   -0.9848   -0.6539 C   0  0  0  0  0  0  0  0  0  0  0  0
   -0.5610    0.0162   -0.5942 C   0  0  0  0  0  0  0  0  0  0  0  0
    0.7917   -0.7485   -0.6009 C   0  0  0  0  0  0  0  0  0  0  0  0
    1.8938    0.1390   -0.6644 O   0  0  0  0  0  0  0  0  0  0  0  0
   -0.6849    0.9236    0.6596 C   0  0  0  0  0  0  0  0  0  0  0  0
   -2.7239   -0.4326   -0.6753 H   0  0  0  0  0  0  0  0  0  0  0  0
   -1.7322   -1.6572    0.2450 H   0  0  0  0  0  0  0  0  0  0  0  0
   -1.6769   -1.6178   -1.5787 H   0  0  0  0  0  0  0  0  0  0  0  0
   -0.6031    0.6699   -1.5123 H   0  0  0  0  0  0  0  0  0  0  0  0
    0.8371   -1.4335   -1.4914 H   0  0  0  0  0  0  0  0  0  0  0  0
    0.8810   -1.3773    0.3262 H   0  0  0  0  0  0  0  0  0  0  0  0
    2.7326   -0.3851   -0.7424 H   0  0  0  0  0  0  0  0  0  0  0  0
    0.1112    1.7151    0.6514 H   0  0  0  0  0  0  0  0  0  0  0  0
   -0.5765    0.3130    1.5952 H   0  0  0  0  0  0  0  0  0  0  0  0
   -1.6862    1.4313    0.6758 H   0  0  0  0  0  0  0  0  0  0  0  0
  1  2  1  0  0  0  0
  1  6  1  0  0  0  0
  1  7  1  1  0  0  0
  1  8  1  6  0  0  0
  2  3  1  0  0  0  0
  2  5  1  1  0  0  0
  2  9  1  6  0  0  0
  3  4  1  0  0  0  0
  3 10  1  6  0  0  0
  3 11  1  1  0  0  0
  4 12  1  0  0  0  0
  5 13  1  0  0  0  0
  5 14  1  1  0  0  0
  5 15  1  0  0  0  0
M  END
