  - methanol -  
  ChemoJun12080615143D 1   1.00000     0.00000     0
  This molfile was created by ChemoJun053 at 2006/12/08 15:14:22
  6  5  0  0  0  0  0  0  0  0  1 V2000
   -0.6843    0.0000    0.0595 C   0  0  0  0  0  0  0  0  0  0  0  0
    0.7312    0.0000    0.0599 O   0  0  0  0  0  0  0  0  0  0  0  0
   -1.0715    0.0000   -0.9947 H   0  0  0  0  0  0  0  0  0  0  0  0
   -1.0639    0.9136    0.5907 H   0  0  0  0  0  0  0  0  0  0  0  0
   -1.0639   -0.9136    0.5907 H   0  0  0  0  0  0  0  0  0  0  0  0
    1.0585    0.0000    0.9965 H   0  0  0  0  0  0  0  0  0  0  0  0
  1  2  1  0  0  0  0
  1  3  1  6  0  0  0
  1  4  1  1  0  0  0
  1  5  1  1  0  0  0
  2  6  1  1  0  0  0
M  END
