  - beta-D-glucose -  
  ChemoJun12080615223D 1   1.00000     0.00000     0
  This molfile was created by ChemoJun053 at 2006/12/08 15:22:59
 24 24  0  0  0  0  0  0  0  0  1 V2000
    1.4650    1.0754   -0.7261 C   0  0  0  0  0  0  0  0  0  0  0  0
    0.0506    1.2190   -0.7377 O   0  0  0  0  0  0  0  0  0  0  0  0
   -0.6696   -0.0104   -0.6935 C   0  0  0  0  0  0  0  0  0  0  0  0
   -0.3015   -0.8269    0.5779 C   0  0  0  0  0  0  0  0  0  0  0  0
    1.2345   -1.0075    0.6822 C   0  0  0  0  0  0  0  0  0  0  0  0
    1.9234    0.3740    0.5772 C   0  0  0  0  0  0  0  0  0  0  0  0
    2.0823    2.3492   -0.8010 O   0  0  0  0  0  0  0  0  0  0  0  0
    3.3292    0.2065    0.6026 O   0  0  0  0  0  0  0  0  0  0  0  0
    1.5940   -1.6191    1.9080 O   0  0  0  0  0  0  0  0  0  0  0  0
   -0.9029   -2.1105    0.5662 O   0  0  0  0  0  0  0  0  0  0  0  0
   -2.1929    0.2974   -0.7253 C   0  0  0  0  0  0  0  0  0  0  0  0
   -2.5410    1.0392   -1.8806 O   0  0  0  0  0  0  0  0  0  0  0  0
    1.8002    0.4729   -1.6165 H   0  0  0  0  0  0  0  0  0  0  0  0
   -0.4171   -0.6226   -1.6054 H   0  0  0  0  0  0  0  0  0  0  0  0
   -0.6624   -0.2721    1.4887 H   0  0  0  0  0  0  0  0  0  0  0  0
    1.5903   -1.6634   -0.1610 H   0  0  0  0  0  0  0  0  0  0  0  0
    1.6231    1.0029    1.4616 H   0  0  0  0  0  0  0  0  0  0  0  0
    3.0457    2.2480   -0.5837 H   0  0  0  0  0  0  0  0  0  0  0  0
    3.5676   -0.3838    1.3637 H   0  0  0  0  0  0  0  0  0  0  0  0
    2.5766   -1.5458    2.0258 H   0  0  0  0  0  0  0  0  0  0  0  0
   -0.4599   -2.6751    1.2523 H   0  0  0  0  0  0  0  0  0  0  0  0
   -2.7808   -0.6606   -0.7235 H   0  0  0  0  0  0  0  0  0  0  0  0
   -2.4823    0.8883    0.1861 H   0  0  0  0  0  0  0  0  0  0  0  0
   -3.5191    1.2057   -1.8802 H   0  0  0  0  0  0  0  0  0  0  0  0
  1  2  1  0  0  0  0
  1  6  1  1  0  0  0
  1  7  1  0  0  0  0
  1 13  1  6  0  0  0
  2  3  1  0  0  0  0
  3  4  1  1  0  0  0
  3 11  1  0  0  0  0
  3 14  1  6  0  0  0
  4  5  1  0  0  0  0
  4 10  1  0  0  0  0
  4 15  1  1  0  0  0
  5  6  1  0  0  0  0
  5  9  1  1  0  0  0
  5 16  1  6  0  0  0
  6  8  1  0  0  0  0
  6 17  1  1  0  0  0
  7 18  1  0  0  0  0
  8 19  1  1  0  0  0
  9 20  1  0  0  0  0
 10 21  1  1  0  0  0
 11 12  1  6  0  0  0
 11 22  1  0  0  0  0
 11 23  1  1  0  0  0
 12 24  1  0  0  0  0
M  END
