  - aniline -  
  ChemoJun12080615173D 1   1.00000     0.00000     0
  This molfile was created by ChemoJun053 at 2006/12/08 15:17:32
 14 14  0  0  0  0  0  0  0  0  1 V2000
   -1.8413    0.6943    0.0063 C   0  0  0  0  0  0  0  0  0  0  0  0
   -1.8404   -0.7246    0.0042 C   0  0  0  0  0  0  0  0  0  0  0  0
   -0.6121   -1.4348    0.0015 C   0  0  0  0  0  0  0  0  0  0  0  0
    0.6165   -0.7271    0.0005 C   0  0  0  0  0  0  0  0  0  0  0  0
    0.6152    0.6932    0.0008 C   0  0  0  0  0  0  0  0  0  0  0  0
   -0.6141    1.4044    0.0040 C   0  0  0  0  0  0  0  0  0  0  0  0
    1.9783    1.4801   -0.0038 N   0  0  0  0  0  0  0  0  0  0  0  0
   -2.8148    1.2553    0.0091 H   0  0  0  0  0  0  0  0  0  0  0  0
   -2.8134   -1.2864    0.0043 H   0  0  0  0  0  0  0  0  0  0  0  0
   -0.6129   -2.5584   -0.0004 H   0  0  0  0  0  0  0  0  0  0  0  0
    1.5899   -1.2875   -0.0015 H   0  0  0  0  0  0  0  0  0  0  0  0
   -0.6127    2.5276    0.0042 H   0  0  0  0  0  0  0  0  0  0  0  0
    2.8667    0.9640   -0.0159 H   0  0  0  0  0  0  0  0  0  0  0  0
    1.9756    2.5076    0.0018 H   0  0  0  0  0  0  0  0  0  0  0  0
  1  2  2  0  0  0  0
  1  6  1  0  0  0  0
  1  8  1  0  0  0  0
  2  3  1  0  0  0  0
  2  9  1  0  0  0  0
  3  4  2  0  0  0  0
  3 10  1  0  0  0  0
  4  5  1  0  0  0  0
  4 11  1  0  0  0  0
  5  6  2  0  0  0  0
  5  7  1  0  0  0  0
  6 12  1  0  0  0  0
  7 13  1  0  0  0  0
  7 14  1  0  0  0  0
M  END
