  - benzene -  
  ChemoJun12080615173D 1   1.00000     0.00000     0
  This molfile was created by ChemoJun053 at 2006/12/08 15:17:32
 12 12  0  0  0  0  0  0  0  0  1 V2000
   -1.2284    0.7092    0.0008 C   0  0  0  0  0  0  0  0  0  0  0  0
   -1.2284   -0.7092   -0.0017 C   0  0  0  0  0  0  0  0  0  0  0  0
    0.0000   -1.4184   -0.0050 C   0  0  0  0  0  0  0  0  0  0  0  0
    1.2284   -0.7092   -0.0052 C   0  0  0  0  0  0  0  0  0  0  0  0
    1.2284    0.7092   -0.0050 C   0  0  0  0  0  0  0  0  0  0  0  0
    0.0000    1.4184   -0.0017 C   0  0  0  0  0  0  0  0  0  0  0  0
   -2.2014    1.2710    0.0035 H   0  0  0  0  0  0  0  0  0  0  0  0
   -2.2014   -1.2710   -0.0022 H   0  0  0  0  0  0  0  0  0  0  0  0
    0.0000   -2.5420   -0.0069 H   0  0  0  0  0  0  0  0  0  0  0  0
    2.2014   -1.2710   -0.0064 H   0  0  0  0  0  0  0  0  0  0  0  0
    2.2014    1.2710   -0.0069 H   0  0  0  0  0  0  0  0  0  0  0  0
    0.0000    2.5420   -0.0022 H   0  0  0  0  0  0  0  0  0  0  0  0
  1  2  2  0  0  0  0
  1  6  1  0  0  0  0
  1  7  1  0  0  0  0
  2  3  1  0  0  0  0
  2  8  1  0  0  0  0
  3  4  2  0  0  0  0
  3  9  1  0  0  0  0
  4  5  1  0  0  0  0
  4 10  1  0  0  0  0
  5  6  2  0  0  0  0
  5 11  1  0  0  0  0
  6 12  1  0  0  0  0
M  END
