  - chlorobenzene -  
  ChemoJun12080615173D 1   1.00000     0.00000     0
  This molfile was created by ChemoJun053 at 2006/12/08 15:17:32
 12 12  0  0  0  0  0  0  0  0  1 V2000
   -1.5036    0.7088    0.0025 C   0  0  0  0  0  0  0  0  0  0  0  0
   -1.5047   -0.7093    0.0009 C   0  0  0  0  0  0  0  0  0  0  0  0
   -0.2761   -1.4173   -0.0016 C   0  0  0  0  0  0  0  0  0  0  0  0
    0.9525   -0.7083   -0.0029 C   0  0  0  0  0  0  0  0  0  0  0  0
    0.9554    0.7111   -0.0029 C   0  0  0  0  0  0  0  0  0  0  0  0
   -0.2753    1.4183    0.0004 C   0  0  0  0  0  0  0  0  0  0  0  0
    2.4829    1.5930   -0.0088 Cl  0  0  0  0  0  0  0  0  0  0  0  0
   -2.4764    1.2708    0.0062 H   0  0  0  0  0  0  0  0  0  0  0  0
   -2.4777   -1.2710    0.0017 H   0  0  0  0  0  0  0  0  0  0  0  0
   -0.2758   -2.5408   -0.0037 H   0  0  0  0  0  0  0  0  0  0  0  0
    1.9208   -1.2782   -0.0044 H   0  0  0  0  0  0  0  0  0  0  0  0
   -0.2847    2.5419    0.0013 H   0  0  0  0  0  0  0  0  0  0  0  0
  1  2  2  0  0  0  0
  1  6  1  0  0  0  0
  1  8  1  0  0  0  0
  2  3  1  0  0  0  0
  2  9  1  0  0  0  0
  3  4  2  0  0  0  0
  3 10  1  0  0  0  0
  4  5  1  0  0  0  0
  4 11  1  0  0  0  0
  5  6  2  0  0  0  0
  5  7  1  0  0  0  0
  6 12  1  0  0  0  0
M  END
