  - m-xylene -  
  ChemoJun12080615173D 1   1.00000     0.00000     0
  This molfile was created by ChemoJun053 at 2006/12/08 15:17:32
 18 18  0  0  0  0  0  0  0  0  1 V2000
   -1.7224    0.3293    0.0039 C   0  0  0  0  0  0  0  0  0  0  0  0
   -1.7202   -1.0886   -0.0014 C   0  0  0  0  0  0  0  0  0  0  0  0
   -0.4933   -1.7995   -0.0076 C   0  0  0  0  0  0  0  0  0  0  0  0
    0.7396   -1.0957   -0.0081 C   0  0  0  0  0  0  0  0  0  0  0  0
    0.7274    0.3245   -0.0012 C   0  0  0  0  0  0  0  0  0  0  0  0
   -0.4963    1.0451    0.0047 C   0  0  0  0  0  0  0  0  0  0  0  0
   -0.4753    2.5927    0.0126 C   0  0  0  0  0  0  0  0  0  0  0  0
    2.0904   -1.8513   -0.0143 C   0  0  0  0  0  0  0  0  0  0  0  0
   -2.7002    0.8819    0.0079 H   0  0  0  0  0  0  0  0  0  0  0  0
   -2.6931   -1.6504   -0.0009 H   0  0  0  0  0  0  0  0  0  0  0  0
   -0.5036   -2.9226   -0.0117 H   0  0  0  0  0  0  0  0  0  0  0  0
    1.7000    0.8860   -0.0002 H   0  0  0  0  0  0  0  0  0  0  0  0
    0.0646    2.9566    0.9269 H   0  0  0  0  0  0  0  0  0  0  0  0
   -1.5169    3.0097    0.0202 H   0  0  0  0  0  0  0  0  0  0  0  0
    0.0556    2.9665   -0.9032 H   0  0  0  0  0  0  0  0  0  0  0  0
    2.6769   -1.5665   -0.9281 H   0  0  0  0  0  0  0  0  0  0  0  0
    1.9307   -2.9617   -0.0211 H   0  0  0  0  0  0  0  0  0  0  0  0
    2.6782   -1.5775    0.9020 H   0  0  0  0  0  0  0  0  0  0  0  0
  1  2  2  0  0  0  0
  1  6  1  0  0  0  0
  1  9  1  0  0  0  0
  2  3  1  0  0  0  0
  2 10  1  0  0  0  0
  3  4  2  0  0  0  0
  3 11  1  0  0  0  0
  4  5  1  0  0  0  0
  4  8  1  0  0  0  0
  5  6  2  0  0  0  0
  5 12  1  0  0  0  0
  6  7  1  0  0  0  0
  7 13  1  1  0  0  0
  7 14  1  0  0  0  0
  7 15  1  6  0  0  0
  8 16  1  6  0  0  0
  8 17  1  0  0  0  0
  8 18  1  1  0  0  0
M  END
