  - naphthalene -  
  ChemoJun12080615173D 1   1.00000     0.00000     0
  This molfile was created by ChemoJun053 at 2006/12/08 15:17:32
 18 19  0  0  0  0  0  0  0  0  1 V2000
   -2.4650    0.7142    0.0093 C   0  0  0  0  0  0  0  0  0  0  0  0
   -2.4650   -0.7143    0.0082 C   0  0  0  0  0  0  0  0  0  0  0  0
   -1.2475   -1.4219    0.0099 C   0  0  0  0  0  0  0  0  0  0  0  0
    0.0000   -0.7141    0.0112 C   0  0  0  0  0  0  0  0  0  0  0  0
    0.0000    0.7141    0.0031 C   0  0  0  0  0  0  0  0  0  0  0  0
   -1.2475    1.4219    0.0054 C   0  0  0  0  0  0  0  0  0  0  0  0
    1.2475   -1.4219    0.0206 C   0  0  0  0  0  0  0  0  0  0  0  0
    2.4651   -0.7141    0.0147 C   0  0  0  0  0  0  0  0  0  0  0  0
    2.4651    0.7141   -0.0055 C   0  0  0  0  0  0  0  0  0  0  0  0
    1.2474    1.4219   -0.0090 C   0  0  0  0  0  0  0  0  0  0  0  0
   -3.4395    1.2737    0.0114 H   0  0  0  0  0  0  0  0  0  0  0  0
   -3.4395   -1.2738    0.0066 H   0  0  0  0  0  0  0  0  0  0  0  0
   -1.2614   -2.5455    0.0089 H   0  0  0  0  0  0  0  0  0  0  0  0
   -1.2614    2.5455    0.0046 H   0  0  0  0  0  0  0  0  0  0  0  0
    1.2615   -2.5454    0.0336 H   0  0  0  0  0  0  0  0  0  0  0  0
    3.4395   -1.2737    0.0243 H   0  0  0  0  0  0  0  0  0  0  0  0
    3.4395    1.2736   -0.0178 H   0  0  0  0  0  0  0  0  0  0  0  0
    1.2615    2.5453   -0.0231 H   0  0  0  0  0  0  0  0  0  0  0  0
  1  2  2  0  0  0  0
  1  6  1  0  0  0  0
  1 11  1  0  0  0  0
  2  3  1  0  0  0  0
  2 12  1  0  0  0  0
  3  4  2  0  0  0  0
  3 13  1  0  0  0  0
  4  5  1  0  0  0  0
  4  7  1  0  0  0  0
  5  6  2  0  0  0  0
  5 10  1  0  0  0  0
  6 14  1  0  0  0  0
  7  8  2  0  0  0  0
  7 15  1  0  0  0  0
  8  9  1  0  0  0  0
  8 16  1  0  0  0  0
  9 10  2  0  0  0  0
  9 17  1  0  0  0  0
 10 18  1  0  0  0  0
M  END
