  - cis-2-butene -  
  ChemoJun12080615163D 1   1.00000     0.00000     0
  This molfile was created by ChemoJun053 at 2006/12/08 15:16:01
 12 11  0  0  0  0  0  0  0  0  1 V2000
   -0.6617   -0.6076    0.0003 C   0  0  0  0  0  0  0  0  0  0  0  0
    0.6627   -0.6076    0.0003 C   0  0  0  0  0  0  0  0  0  0  0  0
   -1.4317    0.7261    0.0003 C   0  0  0  0  0  0  0  0  0  0  0  0
    1.4327    0.7261    0.0003 C   0  0  0  0  0  0  0  0  0  0  0  0
   -1.2227   -1.5792    0.0100 H   0  0  0  0  0  0  0  0  0  0  0  0
    1.2237   -1.5792   -0.0094 H   0  0  0  0  0  0  0  0  0  0  0  0
   -0.7030    1.5792    0.0003 H   0  0  0  0  0  0  0  0  0  0  0  0
   -2.0779    0.7855    0.9156 H   0  0  0  0  0  0  0  0  0  0  0  0
   -2.0779    0.7855   -0.9150 H   0  0  0  0  0  0  0  0  0  0  0  0
    2.0779    0.7860    0.9163 H   0  0  0  0  0  0  0  0  0  0  0  0
    0.7040    1.5792   -0.0010 H   0  0  0  0  0  0  0  0  0  0  0  0
    2.0770    0.7866   -0.9163 H   0  0  0  0  0  0  0  0  0  0  0  0
  1  2  2  0  0  0  0
  1  3  1  0  0  0  0
  1  5  1  0  0  0  0
  2  4  1  0  0  0  0
  2  6  1  0  0  0  0
  3  7  1  0  0  0  0
  3  8  1  1  0  0  0
  3  9  1  6  0  0  0
  4 10  1  1  0  0  0
  4 11  1  0  0  0  0
  4 12  1  6  0  0  0
M  END
