  - ethylene -  
  ChemoJun12080615163D 1   1.00000     0.00000     0
  This molfile was created by ChemoJun053 at 2006/12/08 15:16:01
  6  5  0  0  0  0  0  0  0  0  1 V2000
   -0.6634   -0.0001   -0.0023 C   0  0  0  0  0  0  0  0  0  0  0  0
    0.6634   -0.0001    0.0023 C   0  0  0  0  0  0  0  0  0  0  0  0
   -1.2322   -0.9684   -0.0036 H   0  0  0  0  0  0  0  0  0  0  0  0
   -1.2322    0.9685   -0.0050 H   0  0  0  0  0  0  0  0  0  0  0  0
    1.2322   -0.9684    0.0036 H   0  0  0  0  0  0  0  0  0  0  0  0
    1.2322    0.9685    0.0050 H   0  0  0  0  0  0  0  0  0  0  0  0
  1  2  2  0  0  0  0
  1  3  1  0  0  0  0
  1  4  1  0  0  0  0
  2  5  1  0  0  0  0
  2  6  1  0  0  0  0
M  END
