  - cyclopropane -  
  ChemoJun12080615183D 1   1.00000     0.00000     0
  This molfile was created by ChemoJun053 at 2006/12/08 15:18:19
  9  9  0  0  0  0  0  0  0  0  1 V2000
   -0.7868    0.7906    0.0000 C   0  0  0  0  0  0  0  0  0  0  0  0
   -0.7868   -0.7906    0.0000 C   0  0  0  0  0  0  0  0  0  0  0  0
    0.5825    0.0000    0.0000 C   0  0  0  0  0  0  0  0  0  0  0  0
   -1.0691    1.2794    0.9665 H   0  0  0  0  0  0  0  0  0  0  0  0
   -1.0691    1.2794   -0.9665 H   0  0  0  0  0  0  0  0  0  0  0  0
   -1.0691   -1.2794   -0.9665 H   0  0  0  0  0  0  0  0  0  0  0  0
   -1.0691   -1.2794    0.9665 H   0  0  0  0  0  0  0  0  0  0  0  0
    1.1469    0.0000    0.9665 H   0  0  0  0  0  0  0  0  0  0  0  0
    1.1469    0.0000   -0.9665 H   0  0  0  0  0  0  0  0  0  0  0  0
  1  2  1  0  0  0  0
  1  3  1  0  0  0  0
  1  4  1  1  0  0  0
  1  5  1  6  0  0  0
  2  3  1  0  0  0  0
  2  6  1  6  0  0  0
  2  7  1  1  0  0  0
  3  8  1  1  0  0  0
  3  9  1  6  0  0  0
M  END
