  - D-tartaric-acid -  
  ChemoJun12080615173D 1   1.00000     0.00000     0
  This molfile was created by ChemoJun053 at 2006/12/08 15:17:59
 16 15  0  0  0  0  0  0  0  0  1 V2000
   -0.7910   -0.0236   -0.5250 C   0  0  0  0  0  0  0  0  0  0  0  0
    0.7613    0.0262   -0.5319 C   0  0  0  0  0  0  0  0  0  0  0  0
    1.3292    1.4612   -0.6558 C   0  0  0  0  0  0  0  0  0  0  0  0
    1.2791   -0.5298    0.6649 O   0  0  0  0  0  0  0  0  0  0  0  0
   -1.2690    0.5485    0.6806 O   0  0  0  0  0  0  0  0  0  0  0  0
   -1.3426   -1.4679   -0.6288 C   0  0  0  0  0  0  0  0  0  0  0  0
   -2.7329   -1.6962   -0.5471 O   0  0  0  0  0  0  0  0  0  0  0  0
   -0.6120   -2.4361   -0.6413 O   0  0  0  0  0  0  0  0  0  0  0  0
    2.7187    1.6642   -0.5136 O   0  0  0  0  0  0  0  0  0  0  0  0
    0.6107    2.4386   -0.6657 O   0  0  0  0  0  0  0  0  0  0  0  0
   -1.1914    0.5570   -1.4023 H   0  0  0  0  0  0  0  0  0  0  0  0
    1.1531   -0.5627   -1.4074 H   0  0  0  0  0  0  0  0  0  0  0  0
    2.2641   -0.4086    0.6730 H   0  0  0  0  0  0  0  0  0  0  0  0
   -0.7848    0.1294    1.4388 H   0  0  0  0  0  0  0  0  0  0  0  0
   -2.8894   -2.6749   -0.5223 H   0  0  0  0  0  0  0  0  0  0  0  0
    2.8918    2.6400   -0.4858 H   0  0  0  0  0  0  0  0  0  0  0  0
  1  2  1  0  0  0  0
  1  5  1  1  0  0  0
  1  6  1  0  0  0  0
  1 11  1  6  0  0  0
  2  3  1  0  0  0  0
  2  4  1  1  0  0  0
  2 12  1  6  0  0  0
  3  9  1  0  0  0  0
  3 10  2  0  0  0  0
  4 13  1  0  0  0  0
  5 14  1  1  0  0  0
  6  7  1  0  0  0  0
  6  8  2  0  0  0  0
  7 15  1  0  0  0  0
  9 16  1  0  0  0  0
M  END
