  - oxalic-acid -  
  ChemoJun12080615173D 1   1.00000     0.00000     0
  This molfile was created by ChemoJun053 at 2006/12/08 15:17:59
  8  7  0  0  0  0  0  0  0  0  1 V2000
   -1.0518   -0.1063    0.2326 C   0  0  0  0  0  0  0  0  0  0  0  0
    0.6492   -0.1204    0.0577 C   0  0  0  0  0  0  0  0  0  0  0  0
    1.2301    0.9098   -0.2096 O   0  0  0  0  0  0  0  0  0  0  0  0
    1.3784   -1.3225    0.1468 O   0  0  0  0  0  0  0  0  0  0  0  0
   -1.6762   -1.1456    0.1975 O   0  0  0  0  0  0  0  0  0  0  0  0
   -1.7175    1.1347    0.1400 O   0  0  0  0  0  0  0  0  0  0  0  0
    2.3399   -1.1176    0.0163 H   0  0  0  0  0  0  0  0  0  0  0  0
   -1.0678    1.8116   -0.1838 H   0  0  0  0  0  0  0  0  0  0  0  0
  1  2  1  0  0  0  0
  1  5  2  0  0  0  0
  1  6  1  0  0  0  0
  2  3  2  0  0  0  0
  2  4  1  0  0  0  0
  4  7  1  0  0  0  0
  6  8  1  0  0  0  0
M  END
