  - palmitic-acid -  
  ChemoJun12080615173D 1   1.00000     0.00000     0
  This molfile was created by ChemoJun053 at 2006/12/08 15:17:59
 50 49  0  0  0  0  0  0  0  0  1 V2000
  -10.1796   -0.4313    0.0000 C   0  0  0  0  0  0  0  0  0  0  0  0
   -8.8294   -1.1923    0.0000 C   0  0  0  0  0  0  0  0  0  0  0  0
   -7.6279   -0.2106    0.0000 C   0  0  0  0  0  0  0  0  0  0  0  0
   -6.2739   -0.9687    0.0000 C   0  0  0  0  0  0  0  0  0  0  0  0
   -5.0762    0.0176    0.0000 C   0  0  0  0  0  0  0  0  0  0  0  0
   -3.7198   -0.7356    0.0000 C   0  0  0  0  0  0  0  0  0  0  0  0
   -2.5253    0.2546    0.0000 C   0  0  0  0  0  0  0  0  0  0  0  0
   -1.1664   -0.4942    0.0000 C   0  0  0  0  0  0  0  0  0  0  0  0
    0.0262    0.4988    0.0000 C   0  0  0  0  0  0  0  0  0  0  0  0
    1.3862   -0.2475    0.0000 C   0  0  0  0  0  0  0  0  0  0  0  0
    2.5812    0.7427    0.0001 C   0  0  0  0  0  0  0  0  0  0  0  0
    3.9344   -0.0165    0.0002 C   0  0  0  0  0  0  0  0  0  0  0  0
    5.1409    0.9588    0.0003 C   0  0  0  0  0  0  0  0  0  0  0  0
    6.4861    0.1842   -0.0003 C   0  0  0  0  0  0  0  0  0  0  0  0
    7.6968    1.1534   -0.0010 C   0  0  0  0  0  0  0  0  0  0  0  0
    9.0612    0.4242   -0.0014 C   0  0  0  0  0  0  0  0  0  0  0  0
    9.1436   -0.7861   -0.0091 O   0  0  0  0  0  0  0  0  0  0  0  0
   10.2583    1.1716    0.0004 O   0  0  0  0  0  0  0  0  0  0  0  0
  -11.0346   -1.1597    0.0000 H   0  0  0  0  0  0  0  0  0  0  0  0
  -10.2608    0.2173   -0.9131 H   0  0  0  0  0  0  0  0  0  0  0  0
  -10.2608    0.2173    0.9131 H   0  0  0  0  0  0  0  0  0  0  0  0
   -8.7750   -1.8512   -0.9102 H   0  0  0  0  0  0  0  0  0  0  0  0
   -8.7750   -1.8512    0.9102 H   0  0  0  0  0  0  0  0  0  0  0  0
   -7.6854    0.4475    0.9101 H   0  0  0  0  0  0  0  0  0  0  0  0
   -7.6854    0.4475   -0.9101 H   0  0  0  0  0  0  0  0  0  0  0  0
   -6.2145   -1.6266   -0.9100 H   0  0  0  0  0  0  0  0  0  0  0  0
   -6.2145   -1.6266    0.9100 H   0  0  0  0  0  0  0  0  0  0  0  0
   -5.1362    0.6756    0.9099 H   0  0  0  0  0  0  0  0  0  0  0  0
   -5.1362    0.6756   -0.9099 H   0  0  0  0  0  0  0  0  0  0  0  0
   -3.6590   -1.3933   -0.9101 H   0  0  0  0  0  0  0  0  0  0  0  0
   -3.6590   -1.3933    0.9101 H   0  0  0  0  0  0  0  0  0  0  0  0
   -2.5876    0.9124    0.9100 H   0  0  0  0  0  0  0  0  0  0  0  0
   -2.5876    0.9124   -0.9100 H   0  0  0  0  0  0  0  0  0  0  0  0
   -1.1041   -1.1520   -0.9100 H   0  0  0  0  0  0  0  0  0  0  0  0
   -1.1041   -1.1520    0.9100 H   0  0  0  0  0  0  0  0  0  0  0  0
   -0.0371    1.1562    0.9101 H   0  0  0  0  0  0  0  0  0  0  0  0
   -0.0371    1.1562   -0.9101 H   0  0  0  0  0  0  0  0  0  0  0  0
    1.4492   -0.9053   -0.9099 H   0  0  0  0  0  0  0  0  0  0  0  0
    1.4491   -0.9054    0.9100 H   0  0  0  0  0  0  0  0  0  0  0  0
    2.5221    1.4005    0.9103 H   0  0  0  0  0  0  0  0  0  0  0  0
    2.5222    1.4004   -0.9101 H   0  0  0  0  0  0  0  0  0  0  0  0
    3.9903   -0.6749   -0.9098 H   0  0  0  0  0  0  0  0  0  0  0  0
    3.9902   -0.6750    0.9101 H   0  0  0  0  0  0  0  0  0  0  0  0
    5.0888    1.6168    0.9107 H   0  0  0  0  0  0  0  0  0  0  0  0
    5.0884    1.6174   -0.9097 H   0  0  0  0  0  0  0  0  0  0  0  0
    6.5334   -0.4736   -0.9116 H   0  0  0  0  0  0  0  0  0  0  0  0
    6.5344   -0.4734    0.9110 H   0  0  0  0  0  0  0  0  0  0  0  0
    7.6512    1.8108    0.9093 H   0  0  0  0  0  0  0  0  0  0  0  0
    7.6505    1.8106   -0.9115 H   0  0  0  0  0  0  0  0  0  0  0  0
   11.0241    0.5416   -0.0006 H   0  0  0  0  0  0  0  0  0  0  0  0
  1  2  1  0  0  0  0
  1 19  1  0  0  0  0
  1 20  1  6  0  0  0
  1 21  1  1  0  0  0
  2  3  1  0  0  0  0
  2 22  1  6  0  0  0
  2 23  1  1  0  0  0
  3  4  1  0  0  0  0
  3 24  1  1  0  0  0
  3 25  1  6  0  0  0
  4  5  1  0  0  0  0
  4 26  1  6  0  0  0
  4 27  1  1  0  0  0
  5  6  1  0  0  0  0
  5 28  1  1  0  0  0
  5 29  1  6  0  0  0
  6  7  1  0  0  0  0
  6 30  1  6  0  0  0
  6 31  1  1  0  0  0
  7  8  1  0  0  0  0
  7 32  1  1  0  0  0
  7 33  1  6  0  0  0
  8  9  1  0  0  0  0
  8 34  1  6  0  0  0
  8 35  1  1  0  0  0
  9 10  1  0  0  0  0
  9 36  1  1  0  0  0
  9 37  1  6  0  0  0
 10 11  1  0  0  0  0
 10 38  1  6  0  0  0
 10 39  1  1  0  0  0
 11 12  1  0  0  0  0
 11 40  1  1  0  0  0
 11 41  1  6  0  0  0
 12 13  1  0  0  0  0
 12 42  1  6  0  0  0
 12 43  1  1  0  0  0
 13 14  1  0  0  0  0
 13 44  1  1  0  0  0
 13 45  1  6  0  0  0
 14 15  1  0  0  0  0
 14 46  1  6  0  0  0
 14 47  1  1  0  0  0
 15 16  1  0  0  0  0
 15 48  1  1  0  0  0
 15 49  1  6  0  0  0
 16 17  2  0  0  0  0
 16 18  1  0  0  0  0
 18 50  1  0  0  0  0
M  END
