  - 1-propanol -  
  ChemoJun12080615143D 1   1.00000     0.00000     0
  This molfile was created by ChemoJun053 at 2006/12/08 15:14:22
 12 11  0  0  0  0  0  0  0  0  1 V2000
   -1.7610   -0.5044    0.0000 C   0  0  0  0  0  0  0  0  0  0  0  0
   -0.5708    0.4882    0.0000 C   0  0  0  0  0  0  0  0  0  0  0  0
    0.7880   -0.2592    0.0000 C   0  0  0  0  0  0  0  0  0  0  0  0
    1.8709    0.6538    0.0000 O   0  0  0  0  0  0  0  0  0  0  0  0
   -2.7342    0.0565    0.0000 H   0  0  0  0  0  0  0  0  0  0  0  0
   -1.7232   -1.1570    0.9131 H   0  0  0  0  0  0  0  0  0  0  0  0
   -1.7232   -1.1570   -0.9131 H   0  0  0  0  0  0  0  0  0  0  0  0
   -0.6339    1.1463    0.9103 H   0  0  0  0  0  0  0  0  0  0  0  0
   -0.6339    1.1463   -0.9103 H   0  0  0  0  0  0  0  0  0  0  0  0
    0.8641   -0.9136   -0.9110 H   0  0  0  0  0  0  0  0  0  0  0  0
    0.8641   -0.9136    0.9110 H   0  0  0  0  0  0  0  0  0  0  0  0
    2.7249    0.1482    0.0000 H   0  0  0  0  0  0  0  0  0  0  0  0
  1  2  1  0  0  0  0
  1  5  1  0  0  0  0
  1  6  1  1  0  0  0
  1  7  1  6  0  0  0
  2  3  1  0  0  0  0
  2  8  1  1  0  0  0
  2  9  1  6  0  0  0
  3  4  1  0  0  0  0
  3 10  1  6  0  0  0
  3 11  1  1  0  0  0
  4 12  1  0  0  0  0
M  END
