  - 2-propanol -  
  ChemoJun12080615143D 1   1.00000     0.00000     0
  This molfile was created by ChemoJun053 at 2006/12/08 15:14:22
 12 11  0  0  0  0  0  0  0  0  1 V2000
   -1.3733   -0.5719    0.6383 C   0  0  0  0  0  0  0  0  0  0  0  0
    0.0874   -0.0517    0.6140 C   0  0  0  0  0  0  0  0  0  0  0  0
    0.8424   -0.5678   -0.6381 C   0  0  0  0  0  0  0  0  0  0  0  0
    0.1014    1.3670    0.6312 O   0  0  0  0  0  0  0  0  0  0  0  0
   -1.9016   -0.1996    1.5568 H   0  0  0  0  0  0  0  0  0  0  0  0
   -1.3862   -1.6948    0.6473 H   0  0  0  0  0  0  0  0  0  0  0  0
   -1.9289   -0.2106   -0.2680 H   0  0  0  0  0  0  0  0  0  0  0  0
    0.6218   -0.4174    1.5365 H   0  0  0  0  0  0  0  0  0  0  0  0
    1.9010   -0.1928   -0.6333 H   0  0  0  0  0  0  0  0  0  0  0  0
    0.3366   -0.2061   -1.5729 H   0  0  0  0  0  0  0  0  0  0  0  0
    0.8593   -1.6907   -0.6469 H   0  0  0  0  0  0  0  0  0  0  0  0
    1.0409    1.6858    0.6336 H   0  0  0  0  0  0  0  0  0  0  0  0
  1  2  1  0  0  0  0
  1  5  1  1  0  0  0
  1  6  1  0  0  0  0
  1  7  1  6  0  0  0
  2  3  1  6  0  0  0
  2  4  1  0  0  0  0
  2  8  1  1  0  0  0
  3  9  1  0  0  0  0
  3 10  1  6  0  0  0
  3 11  1  0  0  0  0
  4 12  1  0  0  0  0
M  END
